77022
  -OEChem-10171315073D

  9  9  0     0  0  0  0  0  0999 V2000
   -2.6852   -0.0674   -0.0002 I   0  0  0  0  0  0  0  0  0  0  0  0
    1.4258    0.6699   -0.0002 N   0  0  0  0  0  0  0  0  0  0  0  0
    1.5248   -0.6704   -0.0001 N   0  0  0  0  0  0  0  0  0  0  0  0
    0.1409    1.1276    0.0002 C   0  0  0  0  0  0  0  0  0  0  0  0
   -0.6561    0.0090    0.0002 C   0  0  0  0  0  0  0  0  0  0  0  0
    0.2498   -1.0686    0.0002 C   0  0  0  0  0  0  0  0  0  0  0  0
   -0.0792    2.1861    0.0000 H   0  0  0  0  0  0  0  0  0  0  0  0
    2.2795    1.2141   -0.0005 H   0  0  0  0  0  0  0  0  0  0  0  0
    0.0411   -2.1294    0.0001 H   0  0  0  0  0  0  0  0  0  0  0  0
  1  5  1  0  0  0  0
  2  3  1  0  0  0  0
  2  4  1  0  0  0  0
  2  8  1  0  0  0  0
  3  6  2  0  0  0  0
  4  5  2  0  0  0  0
  4  7  1  0  0  0  0
  5  6  1  0  0  0  0
  6  9  1  0  0  0  0
M  END
> <PUBCHEM_COMPOUND_CID>
77022

> <PUBCHEM_CONFORMER_RMSD>
0.4

> <PUBCHEM_CONFORMER_DIVERSEORDER>
1

> <PUBCHEM_MMFF94_PARTIAL_CHARGES>
9
1 -0.03
2 0.3
3 -0.71
4 -0.3
5 0.03
6 0.14
7 0.15
8 0.27
9 0.15

> <PUBCHEM_EFFECTIVE_ROTOR_COUNT>
0

> <PUBCHEM_PHARMACOPHORE_FEATURES>
4
1 1 hydrophobe
1 2 donor
1 3 acceptor
5 2 3 4 5 6 rings

> <PUBCHEM_HEAVY_ATOM_COUNT>
6

> <PUBCHEM_ATOM_DEF_STEREO_COUNT>
0

> <PUBCHEM_ATOM_UDEF_STEREO_COUNT>
0

> <PUBCHEM_BOND_DEF_STEREO_COUNT>
0

> <PUBCHEM_BOND_UDEF_STEREO_COUNT>
0

> <PUBCHEM_ISOTOPIC_ATOM_COUNT>
0

> <PUBCHEM_COMPONENT_COUNT>
1

> <PUBCHEM_CACTVS_TAUTO_COUNT>
1

> <PUBCHEM_CONFORMER_ID>
00012CDE00000001

> <PUBCHEM_MMFF94_ENERGY>
1.6171

> <PUBCHEM_FEATURE_SELFOVERLAP>
20.297

> <PUBCHEM_SHAPE_FINGERPRINT>
20096714 4 18340206422285037313
21040471 1 18266458908802819201
29004967 10 18334860502356384155
5460574 1 9223235148126577123

> <PUBCHEM_SHAPE_MULTIPOLES>
125.45
3
1.16
0.65
2.12
0.03
0
-0.11
0
-0.25
0
0.18
0
0

> <PUBCHEM_SHAPE_SELFOVERLAP>
235.083

> <PUBCHEM_SHAPE_VOLUME>
82

> <PUBCHEM_COORDINATE_TYPE>
2
5
10

$$$$
