171064
  -OEChem-10171316303D

 63 66  0     1  0  0  0  0  0999 V2000
    1.8908    2.5359   -1.4557 O   0  0  0  0  0  0  0  0  0  0  0  0
    4.6121   -1.4217    0.2343 O   0  0  0  0  0  0  0  0  0  0  0  0
    3.0604   -3.1543    0.8584 O   0  0  0  0  0  0  0  0  0  0  0  0
    0.2568   -2.7557    1.0157 O   0  0  0  0  0  0  0  0  0  0  0  0
   -1.1729   -1.8424   -1.4491 O   0  0  0  0  0  0  0  0  0  0  0  0
   -5.0200    0.2512    0.4129 O   0  0  0  0  0  0  0  0  0  0  0  0
   -3.8763   -1.5390   -1.3585 O   0  0  0  0  0  0  0  0  0  0  0  0
    1.3353    0.8118   -2.8894 O   0  0  0  0  0  0  0  0  0  0  0  0
    0.9734    2.9907    0.7295 C   0  0  2  0  0  0  0  0  0  0  0  0
   -0.3405    2.9098    1.5651 C   0  0  1  0  0  0  0  0  0  0  0  0
    1.0388    1.9724   -0.4444 C   0  0  2  0  0  0  0  0  0  0  0  0
   -0.6480    1.5282    2.1776 C   0  0  0  0  0  0  0  0  0  0  0  0
    1.5081    0.5646   -0.0867 C   0  0  0  0  0  0  0  0  0  0  0  0
   -1.4618    0.6651    1.2350 C   0  0  0  0  0  0  0  0  0  0  0  0
    0.5897   -0.4637    0.2818 C   0  0  0  0  0  0  0  0  0  0  0  0
    2.2494    2.9989    1.5863 C   0  0  0  0  0  0  0  0  0  0  0  0
   -0.3756    3.9773    2.6696 C   0  0  0  0  0  0  0  0  0  0  0  0
   -0.8675   -0.2445    0.3362 C   0  0  0  0  0  0  0  0  0  0  0  0
    2.8913    0.2732   -0.1160 C   0  0  0  0  0  0  0  0  0  0  0  0
    1.0812   -1.7480    0.6115 C   0  0  0  0  0  0  0  0  0  0  0  0
   -2.8622    0.8168    1.2410 C   0  0  0  0  0  0  0  0  0  0  0  0
   -1.7051   -0.9798   -0.5277 C   0  0  0  0  0  0  0  0  0  0  0  0
    3.3204   -0.9947    0.2138 C   0  0  0  0  0  0  0  0  0  0  0  0
    2.4388   -1.9796    0.5685 C   0  0  0  0  0  0  0  0  0  0  0  0
   -3.6698    0.0782    0.3791 C   0  0  0  0  0  0  0  0  0  0  0  0
   -3.0907   -0.8206   -0.5068 C   0  0  0  0  0  0  0  0  0  0  0  0
    1.9378    1.8439   -2.6269 C   0  0  0  0  0  0  0  0  0  0  0  0
    4.4401   -2.7936    0.6440 C   0  0  0  0  0  0  0  0  0  0  0  0
    2.8582    2.5440   -3.5802 C   0  0  0  0  0  0  0  0  0  0  0  0
    0.4918   -3.3041    2.3107 C   0  0  0  0  0  0  0  0  0  0  0  0
   -1.4641   -1.5785   -2.8167 C   0  0  0  0  0  0  0  0  0  0  0  0
   -5.5672    1.2538   -0.4417 C   0  0  0  0  0  0  0  0  0  0  0  0
   -4.8526   -2.3959   -0.7709 C   0  0  0  0  0  0  0  0  0  0  0  0
    0.9512    3.9855    0.2570 H   0  0  0  0  0  0  0  0  0  0  0  0
   -1.1562    3.1766    0.8771 H   0  0  0  0  0  0  0  0  0  0  0  0
    0.0426    1.9272   -0.9035 H   0  0  0  0  0  0  0  0  0  0  0  0
   -1.2376    1.6456    3.0976 H   0  0  0  0  0  0  0  0  0  0  0  0
    0.2621    1.0151    2.5059 H   0  0  0  0  0  0  0  0  0  0  0  0
    2.2765    3.8711    2.2472 H   0  0  0  0  0  0  0  0  0  0  0  0
    2.3302    2.1055    2.2122 H   0  0  0  0  0  0  0  0  0  0  0  0
    3.1431    3.0634    0.9569 H   0  0  0  0  0  0  0  0  0  0  0  0
    0.3165    3.7414    3.4843 H   0  0  0  0  0  0  0  0  0  0  0  0
   -0.1208    4.9646    2.2705 H   0  0  0  0  0  0  0  0  0  0  0  0
   -1.3804    4.0470    3.1012 H   0  0  0  0  0  0  0  0  0  0  0  0
    3.6242    1.0295   -0.3805 H   0  0  0  0  0  0  0  0  0  0  0  0
   -3.3248    1.5252    1.9258 H   0  0  0  0  0  0  0  0  0  0  0  0
    4.8575   -3.4467   -0.1309 H   0  0  0  0  0  0  0  0  0  0  0  0
    4.9938   -2.9539    1.5762 H   0  0  0  0  0  0  0  0  0  0  0  0
    3.8658    2.5861   -3.1589 H   0  0  0  0  0  0  0  0  0  0  0  0
    2.4838    3.5499   -3.7863 H   0  0  0  0  0  0  0  0  0  0  0  0
    2.8974    1.9873   -4.5209 H   0  0  0  0  0  0  0  0  0  0  0  0
    0.9055   -2.5625    3.0031 H   0  0  0  0  0  0  0  0  0  0  0  0
    1.1534   -4.1717    2.2385 H   0  0  0  0  0  0  0  0  0  0  0  0
   -0.4682   -3.6439    2.7105 H   0  0  0  0  0  0  0  0  0  0  0  0
   -2.2678   -2.2341   -3.1636 H   0  0  0  0  0  0  0  0  0  0  0  0
   -0.5683   -1.8121   -3.4002 H   0  0  0  0  0  0  0  0  0  0  0  0
   -1.7187   -0.5284   -2.9994 H   0  0  0  0  0  0  0  0  0  0  0  0
   -5.3407    1.0332   -1.4897 H   0  0  0  0  0  0  0  0  0  0  0  0
   -5.1775    2.2406   -0.1725 H   0  0  0  0  0  0  0  0  0  0  0  0
   -6.6529    1.2587   -0.3122 H   0  0  0  0  0  0  0  0  0  0  0  0
   -4.5643   -2.7261    0.2333 H   0  0  0  0  0  0  0  0  0  0  0  0
   -4.9478   -3.2817   -1.4059 H   0  0  0  0  0  0  0  0  0  0  0  0
   -5.8240   -1.8947   -0.7432 H   0  0  0  0  0  0  0  0  0  0  0  0
  1 11  1  0  0  0  0
  1 27  1  0  0  0  0
  2 23  1  0  0  0  0
  2 28  1  0  0  0  0
  3 24  1  0  0  0  0
  3 28  1  0  0  0  0
  4 20  1  0  0  0  0
  4 30  1  0  0  0  0
  5 22  1  0  0  0  0
  5 31  1  0  0  0  0
  6 25  1  0  0  0  0
  6 32  1  0  0  0  0
  7 26  1  0  0  0  0
  7 33  1  0  0  0  0
  8 27  2  0  0  0  0
  9 10  1  0  0  0  0
  9 11  1  0  0  0  0
  9 16  1  0  0  0  0
  9 34  1  0  0  0  0
 10 12  1  0  0  0  0
 10 17  1  0  0  0  0
 10 35  1  0  0  0  0
 11 13  1  0  0  0  0
 11 36  1  0  0  0  0
 12 14  1  0  0  0  0
 12 37  1  0  0  0  0
 12 38  1  0  0  0  0
 13 15  1  0  0  0  0
 13 19  2  0  0  0  0
 14 18  1  0  0  0  0
 14 21  2  0  0  0  0
 15 18  1  0  0  0  0
 15 20  2  0  0  0  0
 16 39  1  0  0  0  0
 16 40  1  0  0  0  0
 16 41  1  0  0  0  0
 17 42  1  0  0  0  0
 17 43  1  0  0  0  0
 17 44  1  0  0  0  0
 18 22  2  0  0  0  0
 19 23  1  0  0  0  0
 19 45  1  0  0  0  0
 20 24  1  0  0  0  0
 21 25  1  0  0  0  0
 21 46  1  0  0  0  0
 22 26  1  0  0  0  0
 23 24  2  0  0  0  0
 25 26  2  0  0  0  0
 27 29  1  0  0  0  0
 28 47  1  0  0  0  0
 28 48  1  0  0  0  0
 29 49  1  0  0  0  0
 29 50  1  0  0  0  0
 29 51  1  0  0  0  0
 30 52  1  0  0  0  0
 30 53  1  0  0  0  0
 30 54  1  0  0  0  0
 31 55  1  0  0  0  0
 31 56  1  0  0  0  0
 31 57  1  0  0  0  0
 32 58  1  0  0  0  0
 32 59  1  0  0  0  0
 32 60  1  0  0  0  0
 33 61  1  0  0  0  0
 33 62  1  0  0  0  0
 33 63  1  0  0  0  0
M  END
> <PUBCHEM_COMPOUND_CID>
171064

> <PUBCHEM_CONFORMER_RMSD>
1

> <PUBCHEM_CONFORMER_DIVERSEORDER>
1
4
2
3

> <PUBCHEM_MMFF94_PARTIAL_CHARGES>
29
1 -0.43
11 0.42
12 0.14
13 -0.14
14 -0.14
19 -0.15
2 -0.36
20 0.08
21 -0.15
22 0.08
23 0.08
24 0.08
25 0.08
26 0.08
27 0.66
28 0.56
29 0.06
3 -0.36
30 0.28
31 0.28
32 0.28
33 0.28
4 -0.36
45 0.15
46 0.15
5 -0.36
6 -0.36
7 -0.36
8 -0.57

> <PUBCHEM_EFFECTIVE_ROTOR_COUNT>
7.4

> <PUBCHEM_PHARMACOPHORE_FEATURES>
10
1 2 acceptor
1 3 acceptor
1 4 acceptor
1 5 acceptor
1 6 acceptor
1 7 acceptor
1 8 acceptor
5 2 3 23 24 28 rings
6 13 15 19 20 23 24 rings
6 14 18 21 22 25 26 rings

> <PUBCHEM_HEAVY_ATOM_COUNT>
33

> <PUBCHEM_ATOM_DEF_STEREO_COUNT>
3

> <PUBCHEM_ATOM_UDEF_STEREO_COUNT>
0

> <PUBCHEM_BOND_DEF_STEREO_COUNT>
0

> <PUBCHEM_BOND_UDEF_STEREO_COUNT>
0

> <PUBCHEM_ISOTOPIC_ATOM_COUNT>
0

> <PUBCHEM_COMPONENT_COUNT>
1

> <PUBCHEM_CACTVS_TAUTO_COUNT>
1

> <PUBCHEM_CONFORMER_ID>
00029C3800000001

> <PUBCHEM_MMFF94_ENERGY>
150.4802

> <PUBCHEM_FEATURE_SELFOVERLAP>
50.917

> <PUBCHEM_SHAPE_FINGERPRINT>
10165383 225 17392799102712935477
10190108 129 17471319691236169187
1100329 8 18343017779413271355
11578080 2 17835758033851232648
11582403 64 16481330429234013808
12156800 1 17555474837503299948
12166972 35 18334016051693417071
12236239 1 18342172220174208867
12788726 201 18200611193562401888
13004483 165 18127957634041085632
13009979 54 18341620265379152866
13140716 1 18202565060179449265
133893 2 17461760300561899300
13583140 156 18268152140141772043
13911987 19 17024902293681002702
14068700 675 18340199700956586008
14955137 171 18272091569644543467
17980427 23 16701151188716921121
1813 80 18117008684578319638
18336668 15 18408595951127807192
18681886 176 18059839680624211667
20691752 17 18265895946339491089
20905425 154 17414988342646733113
21133410 90 18056740058524969993
22149856 69 17972605657118008699
23419403 2 16110551812096965530
23559900 14 17967249780931916667
25222932 49 16475681177050651599
3380486 77 17896333423907999322
3493558 16 17825669946200417821
376196 1 16551983964050621201
46194498 28 17530966891081892541
463206 1 18411982451415880899
469060 322 17606689007199022370
5081480 168 17385727967293382279
57527573 199 18126844030647652688
7471813 234 18272080557269054665
9981440 41 17334191916053528472

> <PUBCHEM_SHAPE_MULTIPOLES>
632.17
7.69
4.54
2.81
7.25
1.12
2.22
-3.57
1.69
-2.77
-2.25
-1.45
1.73
-2.95

> <PUBCHEM_SHAPE_SELFOVERLAP>
1370.411

> <PUBCHEM_SHAPE_VOLUME>
345.7

> <PUBCHEM_COORDINATE_TYPE>
2
5
10

$$$$
