67114
  -OEChem-10171312023D

 28 28  0     0  0  0  0  0  0999 V2000
   -4.4453   -0.5583   -0.2318 O   0  0  0  0  0  0  0  0  0  0  0  0
    1.9796   -0.0652   -0.0077 N   0  0  0  0  0  0  0  0  0  0  0  0
    2.6223   -1.2870   -0.4488 C   0  0  0  0  0  0  0  0  0  0  0  0
    2.8011    1.0600    0.3927 C   0  0  0  0  0  0  0  0  0  0  0  0
    0.5729    0.0327    0.0188 C   0  0  0  0  0  0  0  0  0  0  0  0
    2.6676   -2.3173    0.6669 C   0  0  0  0  0  0  0  0  0  0  0  0
    2.9455    2.0643   -0.7380 C   0  0  0  0  0  0  0  0  0  0  0  0
   -0.0364    1.2129    0.4449 C   0  0  0  0  0  0  0  0  0  0  0  0
   -0.2093   -1.0509   -0.3815 C   0  0  0  0  0  0  0  0  0  0  0  0
   -1.4276    1.3095    0.4712 C   0  0  0  0  0  0  0  0  0  0  0  0
   -1.6005   -0.9541   -0.3553 C   0  0  0  0  0  0  0  0  0  0  0  0
   -2.2097    0.2262    0.0710 C   0  0  0  0  0  0  0  0  0  0  0  0
   -3.6602    0.3273    0.0976 C   0  0  0  0  0  0  0  0  0  0  0  0
    2.1696   -1.6966   -1.3590 H   0  0  0  0  0  0  0  0  0  0  0  0
    3.6578   -1.0701   -0.7435 H   0  0  0  0  0  0  0  0  0  0  0  0
    2.4456    1.5360    1.3135 H   0  0  0  0  0  0  0  0  0  0  0  0
    3.8070    0.7035    0.6518 H   0  0  0  0  0  0  0  0  0  0  0  0
    3.2050   -1.9242    1.5369 H   0  0  0  0  0  0  0  0  0  0  0  0
    1.6720   -2.6173    1.0052 H   0  0  0  0  0  0  0  0  0  0  0  0
    3.1910   -3.2167    0.3271 H   0  0  0  0  0  0  0  0  0  0  0  0
    3.3876    1.5931   -1.6227 H   0  0  0  0  0  0  0  0  0  0  0  0
    1.9882    2.4974   -1.0410 H   0  0  0  0  0  0  0  0  0  0  0  0
    3.6021    2.8846   -0.4309 H   0  0  0  0  0  0  0  0  0  0  0  0
    0.5125    2.0900    0.7683 H   0  0  0  0  0  0  0  0  0  0  0  0
    0.2008   -1.9943   -0.7241 H   0  0  0  0  0  0  0  0  0  0  0  0
   -1.8878    2.2358    0.8057 H   0  0  0  0  0  0  0  0  0  0  0  0
   -2.1930   -1.8089   -0.6712 H   0  0  0  0  0  0  0  0  0  0  0  0
   -4.0577    1.2958    0.4483 H   0  0  0  0  0  0  0  0  0  0  0  0
  1 13  2  0  0  0  0
  2  3  1  0  0  0  0
  2  4  1  0  0  0  0
  2  5  1  0  0  0  0
  3  6  1  0  0  0  0
  3 14  1  0  0  0  0
  3 15  1  0  0  0  0
  4  7  1  0  0  0  0
  4 16  1  0  0  0  0
  4 17  1  0  0  0  0
  5  8  2  0  0  0  0
  5  9  1  0  0  0  0
  6 18  1  0  0  0  0
  6 19  1  0  0  0  0
  6 20  1  0  0  0  0
  7 21  1  0  0  0  0
  7 22  1  0  0  0  0
  7 23  1  0  0  0  0
  8 10  1  0  0  0  0
  8 24  1  0  0  0  0
  9 11  2  0  0  0  0
  9 25  1  0  0  0  0
 10 12  2  0  0  0  0
 10 26  1  0  0  0  0
 11 12  1  0  0  0  0
 11 27  1  0  0  0  0
 12 13  1  0  0  0  0
 13 28  1  0  0  0  0
M  END
> <PUBCHEM_COMPOUND_CID>
67114

> <PUBCHEM_CONFORMER_RMSD>
0.6

> <PUBCHEM_CONFORMER_DIVERSEORDER>
1
8
6
9
3
7
5
4
2

> <PUBCHEM_MMFF94_PARTIAL_CHARGES>
16
1 -0.57
10 -0.15
11 -0.15
12 0.09
13 0.42
2 -0.84
24 0.15
25 0.15
26 0.15
27 0.15
28 0.06
3 0.37
4 0.37
5 0.1
8 -0.15
9 -0.15

> <PUBCHEM_EFFECTIVE_ROTOR_COUNT>
4

> <PUBCHEM_PHARMACOPHORE_FEATURES>
3
1 1 acceptor
1 2 cation
6 5 8 9 10 11 12 rings

> <PUBCHEM_HEAVY_ATOM_COUNT>
13

> <PUBCHEM_ATOM_DEF_STEREO_COUNT>
0

> <PUBCHEM_ATOM_UDEF_STEREO_COUNT>
0

> <PUBCHEM_BOND_DEF_STEREO_COUNT>
0

> <PUBCHEM_BOND_UDEF_STEREO_COUNT>
0

> <PUBCHEM_ISOTOPIC_ATOM_COUNT>
0

> <PUBCHEM_COMPONENT_COUNT>
1

> <PUBCHEM_CACTVS_TAUTO_COUNT>
1

> <PUBCHEM_CONFORMER_ID>
0001062A00000001

> <PUBCHEM_MMFF94_ENERGY>
40.65

> <PUBCHEM_FEATURE_SELFOVERLAP>
15.223

> <PUBCHEM_SHAPE_FINGERPRINT>
10130415 120 18272086059053335643
10980938 120 18342458161789773921
11769659 78 18338230458198383035
12032990 46 18342461413549742775
12932764 1 17386002819588666569
13380535 21 18339651155869995914
13380535 76 18337673126230847106
13760787 5 18341895186768116973
14325111 11 18341613702869311633
14576447 43 17914599795390319799
14897335 6 18341330093119690644
15375462 6 18333452040630139061
15442244 35 18267586801606252768
15536298 74 18272933812925844198
15775835 57 18272373117503426588
16945 1 18270114746257942184
18186145 218 18334576798354976365
18619055 16 18412539907800051637
19026448 4 17530965778759202349
19422 9 18343305838432148761
19786989 88 17895749724666559636
20281475 54 18342455959083506787
20559304 39 18342174436703835464
20645477 70 18411980239449882823
20871998 22 18125721176209855550
21501502 16 18270407083360055281
21501925 9 18341039718991965298
2255824 54 18335425642986128662
22959321 4 18410575042045884307
23463225 33 18341612568718312151
23552423 10 18409730664360360078
23559900 14 18409162178051825490
23598291 2 18196670513802562820
2748010 2 18268987592262957596
449060 62 18341900726616838000
537710 114 18271810163429293225
53812653 166 17987792054830480872
7364860 26 18272370863225610986
81539 233 18187646963712730260

> <PUBCHEM_SHAPE_MULTIPOLES>
256.68
6.28
2.05
0.77
4.13
0.17
0
0.3
-0.29
-2.23
0.05
-0.24
-0.02
-0.64

> <PUBCHEM_SHAPE_SELFOVERLAP>
520.188

> <PUBCHEM_SHAPE_VOLUME>
150.7

> <PUBCHEM_COORDINATE_TYPE>
2
5
10

$$$$
