185694
  -OEChem-10251315053D

 14 14  0     0  0  0  0  0  0999 V2000
    3.5408   -0.3556    0.0000 I   0  0  0  0  0  0  0  0  0  0  0  0
   -1.6270   -1.8575    0.0001 F   0  0  0  0  0  0  0  0  0  0  0  0
   -2.6412    0.7352   -0.0001 N   0  0  0  0  0  0  0  0  0  0  0  0
   -1.2525    0.4880    0.0000 C   0  0  0  0  0  0  0  0  0  0  0  0
   -0.7749   -0.8226   -0.0001 C   0  0  0  0  0  0  0  0  0  0  0  0
   -0.3565    1.5569    0.0001 C   0  0  0  0  0  0  0  0  0  0  0  0
    0.5989   -1.0643   -0.0001 C   0  0  0  0  0  0  0  0  0  0  0  0
    1.0173    1.3153    0.0000 C   0  0  0  0  0  0  0  0  0  0  0  0
    1.4951    0.0047    0.0000 C   0  0  0  0  0  0  0  0  0  0  0  0
   -0.7163    2.5827    0.0001 H   0  0  0  0  0  0  0  0  0  0  0  0
    0.9494   -2.0932    0.0000 H   0  0  0  0  0  0  0  0  0  0  0  0
    1.6982    2.1627    0.0001 H   0  0  0  0  0  0  0  0  0  0  0  0
   -2.9874    1.6853    0.0006 H   0  0  0  0  0  0  0  0  0  0  0  0
   -3.2908   -0.0400    0.0005 H   0  0  0  0  0  0  0  0  0  0  0  0
  1  9  1  0  0  0  0
  2  5  1  0  0  0  0
  3  4  1  0  0  0  0
  3 13  1  0  0  0  0
  3 14  1  0  0  0  0
  4  5  2  0  0  0  0
  4  6  1  0  0  0  0
  5  7  1  0  0  0  0
  6  8  2  0  0  0  0
  6 10  1  0  0  0  0
  7  9  2  0  0  0  0
  7 11  1  0  0  0  0
  8  9  1  0  0  0  0
  8 12  1  0  0  0  0
M  END
> <PUBCHEM_COMPOUND_CID>
185694

> <PUBCHEM_CONFORMER_RMSD>
0.4

> <PUBCHEM_CONFORMER_DIVERSEORDER>
1

> <PUBCHEM_MMFF94_PARTIAL_CHARGES>
14
1 -0.08
10 0.15
11 0.15
12 0.15
13 0.4
14 0.4
2 -0.19
3 -0.9
4 0.1
5 0.19
6 -0.15
7 -0.15
8 -0.15
9 0.08

> <PUBCHEM_EFFECTIVE_ROTOR_COUNT>
0

> <PUBCHEM_PHARMACOPHORE_FEATURES>
4
1 1 hydrophobe
1 3 cation
1 3 donor
6 4 5 6 7 8 9 rings

> <PUBCHEM_HEAVY_ATOM_COUNT>
9

> <PUBCHEM_ATOM_DEF_STEREO_COUNT>
0

> <PUBCHEM_ATOM_UDEF_STEREO_COUNT>
0

> <PUBCHEM_BOND_DEF_STEREO_COUNT>
0

> <PUBCHEM_BOND_UDEF_STEREO_COUNT>
0

> <PUBCHEM_ISOTOPIC_ATOM_COUNT>
0

> <PUBCHEM_COMPONENT_COUNT>
1

> <PUBCHEM_CACTVS_TAUTO_COUNT>
1

> <PUBCHEM_CONFORMER_ID>
0002D55E00000001

> <PUBCHEM_MMFF94_ENERGY>
27.726

> <PUBCHEM_FEATURE_SELFOVERLAP>
20.297

> <PUBCHEM_SHAPE_FINGERPRINT>
10857977 72 18341320184972932914
13024252 1 15936699185439098592
14128692 85 18336552732530061292
14325111 11 18338516344349073760
15310529 11 16588021256398195184
16714656 1 18338237068237291684
16945 1 18410856516917086852
193761 8 18050567644620830180
20871998 184 18201440302496796526
21040471 1 18338797810313876165
23235685 24 18340481162679304748
23402655 69 17978772542685821981
23552423 10 18188211038942171852
2748010 2 18267017443624935772
369184 2 18408600336537271216
5084963 1 18200316657389541026

> <PUBCHEM_SHAPE_MULTIPOLES>
184.9
4.16
1.63
0.64
2.89
0.15
0
0.29
0
-0.59
0
0.17
-0.01
0

> <PUBCHEM_SHAPE_SELFOVERLAP>
363.882

> <PUBCHEM_SHAPE_VOLUME>
114

> <PUBCHEM_COORDINATE_TYPE>
2
5
10

$$$$
