196866
  -OEChem-10241303043D

 48 54  0     1  0  0  0  0  0999 V2000
   -2.4218   -2.1854   -0.3104 O   0  0  0  0  0  0  0  0  0  0  0  0
    2.1491   -3.3834   -0.4208 O   0  0  0  0  0  0  0  0  0  0  0  0
   -4.6466    0.1810   -0.8429 O   0  0  0  0  0  0  0  0  0  0  0  0
   -1.2649    2.5991   -0.2896 N   0  0  1  0  0  0  0  0  0  0  0  0
    1.3119   -1.2069   -0.4004 N   0  0  0  0  0  0  0  0  0  0  0  0
    0.6380    1.1297   -0.3295 C   0  0  2  0  0  0  0  0  0  0  0  0
    0.1197   -0.3438   -0.3647 C   0  0  2  0  0  0  0  0  0  0  0  0
   -0.1719    2.0802    0.5741 C   0  0  2  0  0  0  0  0  0  0  0  0
   -0.6682   -0.8440    0.8568 C   0  0  1  0  0  0  0  0  0  0  0  0
   -1.6048    0.2273    1.4382 C   0  0  1  0  0  0  0  0  0  0  0  0
   -0.7025    1.4089    1.8412 C   0  0  0  0  0  0  0  0  0  0  0  0
    0.4771    1.8063   -1.6976 C   0  0  0  0  0  0  0  0  0  0  0  0
    2.1014    0.9203   -0.0337 C   0  0  0  0  0  0  0  0  0  0  0  0
   -0.9716    2.2560   -1.6882 C   0  0  0  0  0  0  0  0  0  0  0  0
   -1.2456   -2.2366    0.5048 C   0  0  2  0  0  0  0  0  0  0  0  0
   -2.6964    0.7052    0.4850 C   0  0  0  0  0  0  0  0  0  0  0  0
   -2.6134    2.1764    0.1205 C   0  0  0  0  0  0  0  0  0  0  0  0
    2.4567   -0.4293   -0.1603 C   0  0  0  0  0  0  0  0  0  0  0  0
   -0.2279   -3.0996   -0.2930 C   0  0  0  0  0  0  0  0  0  0  0  0
    1.2124   -2.5881   -0.3743 C   0  0  0  0  0  0  0  0  0  0  0  0
   -3.6145   -0.1587    0.0044 C   0  0  0  0  0  0  0  0  0  0  0  0
    3.0620    1.8755    0.2701 C   0  0  0  0  0  0  0  0  0  0  0  0
   -3.5620   -1.6197    0.3255 C   0  0  0  0  0  0  0  0  0  0  0  0
    3.7668   -0.8482    0.0155 C   0  0  0  0  0  0  0  0  0  0  0  0
    4.3837    1.4643    0.4493 C   0  0  0  0  0  0  0  0  0  0  0  0
    4.7333    0.1131    0.3201 C   0  0  0  0  0  0  0  0  0  0  0  0
   -0.4557   -0.5334   -1.2807 H   0  0  0  0  0  0  0  0  0  0  0  0
    0.4389    2.9426    0.8674 H   0  0  0  0  0  0  0  0  0  0  0  0
    0.0573   -1.0501    1.6624 H   0  0  0  0  0  0  0  0  0  0  0  0
   -2.0738   -0.1572    2.3534 H   0  0  0  0  0  0  0  0  0  0  0  0
   -1.2607    2.1284    2.4545 H   0  0  0  0  0  0  0  0  0  0  0  0
    0.1317    1.0692    2.4678 H   0  0  0  0  0  0  0  0  0  0  0  0
    0.6973    1.1430   -2.5414 H   0  0  0  0  0  0  0  0  0  0  0  0
    1.1327    2.6828   -1.7876 H   0  0  0  0  0  0  0  0  0  0  0  0
   -1.1269    3.1198   -2.3423 H   0  0  0  0  0  0  0  0  0  0  0  0
   -1.6054    1.4410   -2.0590 H   0  0  0  0  0  0  0  0  0  0  0  0
   -1.4969   -2.7680    1.4320 H   0  0  0  0  0  0  0  0  0  0  0  0
   -3.3371    2.4379   -0.6615 H   0  0  0  0  0  0  0  0  0  0  0  0
   -2.9176    2.7690    0.9930 H   0  0  0  0  0  0  0  0  0  0  0  0
   -0.5672   -3.2453   -1.3269 H   0  0  0  0  0  0  0  0  0  0  0  0
   -0.1952   -4.0969    0.1635 H   0  0  0  0  0  0  0  0  0  0  0  0
    2.8044    2.9259    0.3554 H   0  0  0  0  0  0  0  0  0  0  0  0
   -3.5624   -1.8061    1.4064 H   0  0  0  0  0  0  0  0  0  0  0  0
   -4.4366   -2.1495   -0.0664 H   0  0  0  0  0  0  0  0  0  0  0  0
    4.0623   -1.8870   -0.0671 H   0  0  0  0  0  0  0  0  0  0  0  0
    5.1499    2.1977    0.6854 H   0  0  0  0  0  0  0  0  0  0  0  0
    5.7673   -0.1892    0.4629 H   0  0  0  0  0  0  0  0  0  0  0  0
   -5.1334   -0.6191   -1.0996 H   0  0  0  0  0  0  0  0  0  0  0  0
  1 15  1  0  0  0  0
  1 23  1  0  0  0  0
  2 20  2  0  0  0  0
  3 21  1  0  0  0  0
  3 48  1  0  0  0  0
  4  8  1  0  0  0  0
  4 14  1  0  0  0  0
  4 17  1  0  0  0  0
  5  7  1  0  0  0  0
  5 18  1  0  0  0  0
  5 20  1  0  0  0  0
  6  7  1  0  0  0  0
  6  8  1  0  0  0  0
  6 12  1  0  0  0  0
  6 13  1  0  0  0  0
  7  9  1  0  0  0  0
  7 27  1  0  0  0  0
  8 11  1  0  0  0  0
  8 28  1  0  0  0  0
  9 10  1  0  0  0  0
  9 15  1  0  0  0  0
  9 29  1  0  0  0  0
 10 11  1  0  0  0  0
 10 16  1  0  0  0  0
 10 30  1  0  0  0  0
 11 31  1  0  0  0  0
 11 32  1  0  0  0  0
 12 14  1  0  0  0  0
 12 33  1  0  0  0  0
 12 34  1  0  0  0  0
 13 18  1  0  0  0  0
 13 22  2  0  0  0  0
 14 35  1  0  0  0  0
 14 36  1  0  0  0  0
 15 19  1  0  0  0  0
 15 37  1  0  0  0  0
 16 17  1  0  0  0  0
 16 21  2  0  0  0  0
 17 38  1  0  0  0  0
 17 39  1  0  0  0  0
 18 24  2  0  0  0  0
 19 20  1  0  0  0  0
 19 40  1  0  0  0  0
 19 41  1  0  0  0  0
 21 23  1  0  0  0  0
 22 25  1  0  0  0  0
 22 42  1  0  0  0  0
 23 43  1  0  0  0  0
 23 44  1  0  0  0  0
 24 26  1  0  0  0  0
 24 45  1  0  0  0  0
 25 26  2  0  0  0  0
 25 46  1  0  0  0  0
 26 47  1  0  0  0  0
M  END
> <PUBCHEM_COMPOUND_CID>
196866

> <PUBCHEM_CONFORMER_RMSD>
0.6

> <PUBCHEM_CONFORMER_DIVERSEORDER>
1

> <PUBCHEM_MMFF94_PARTIAL_CHARGES>
28
1 -0.56
10 0.14
13 -0.14
14 0.27
15 0.28
16 -0.28
17 0.41
18 0.12
19 0.06
2 -0.57
20 0.57
21 -0.06
22 -0.15
23 0.42
24 -0.15
25 -0.15
26 -0.15
3 -0.53
4 -0.81
42 0.15
45 0.15
46 0.15
47 0.15
48 0.45
5 -0.48
6 0.14
7 0.3
8 0.27

> <PUBCHEM_EFFECTIVE_ROTOR_COUNT>
1.4

> <PUBCHEM_PHARMACOPHORE_FEATURES>
11
1 1 acceptor
1 2 acceptor
1 3 donor
1 4 cation
5 4 6 8 12 14 rings
5 5 6 7 13 18 rings
6 13 18 22 24 25 26 rings
6 4 8 10 11 16 17 rings
6 5 7 9 15 19 20 rings
6 6 7 8 9 10 11 rings
7 1 9 10 15 16 21 23 rings

> <PUBCHEM_HEAVY_ATOM_COUNT>
26

> <PUBCHEM_ATOM_DEF_STEREO_COUNT>
5

> <PUBCHEM_ATOM_UDEF_STEREO_COUNT>
1

> <PUBCHEM_BOND_DEF_STEREO_COUNT>
0

> <PUBCHEM_BOND_UDEF_STEREO_COUNT>
0

> <PUBCHEM_ISOTOPIC_ATOM_COUNT>
0

> <PUBCHEM_COMPONENT_COUNT>
1

> <PUBCHEM_CACTVS_TAUTO_COUNT>
3

> <PUBCHEM_CONFORMER_ID>
0003010200000001

> <PUBCHEM_MMFF94_ENERGY>
108.5083

> <PUBCHEM_FEATURE_SELFOVERLAP>
58.032

> <PUBCHEM_SHAPE_FINGERPRINT>
10863032 1 18198622133956847009
10906281 52 18115046150569354989
10948715 1 18269836406955718569
10967382 1 18411704278920821770
11370993 70 18412539903357358856
12011746 2 18411140238414927140
12156800 1 17039156477658795414
12403259 226 18337953377215672866
12403260 363 18339072697153438458
12422481 6 18265071175274203361
12633257 1 18269844125159214360
12839892 36 18338782456317632802
13132413 78 17837211845899675228
13140716 1 18266470990493108266
14223421 5 18339929199352511890
14787075 74 17917424380020662456
14790565 3 17903363946090591428
15196674 1 18339361967163631275
15840311 113 17841170861703823417
16945 1 18339940241507643232
17349148 13 18335138721510546536
17357779 13 18336814394516732709
19591789 44 18411703149908957950
19930381 70 18268427923938642792
200 152 18060414707592782249
20691752 17 17824275803725376963
20715895 44 18261946341838006245
20905425 154 18340492162043311095
21285901 2 18114174199436046437
21330990 113 18408039623961293404
22121540 332 16017187581579622517
22182313 1 17970353611847011325
2334 1 18122919890742897474
23402539 116 18339071691962500495
23419403 2 17553161490692010475
23559900 14 18342173324455024928
23566358 2 18195521502407571591
238 59 16165222515564848341
2748010 2 18194986216407296006
350125 39 18411136970435470544
392239 28 17845651581306451080
4340502 62 18199756847479706585
463206 1 17983010352308996727
484989 97 17688299510510924423
59554788 191 18117840138527570487
59755656 215 18338801104569538862
7471813 234 16978698937511000614
9709674 26 18340493248749080142

> <PUBCHEM_SHAPE_MULTIPOLES>
507.5
6.65
3.49
1.19
2.56
1.78
0.01
-0.27
-0.42
-0.19
0.66
-0.36
-0.63
0.38

> <PUBCHEM_SHAPE_SELFOVERLAP>
1167.521

> <PUBCHEM_SHAPE_VOLUME>
256

> <PUBCHEM_COORDINATE_TYPE>
2
5
10

$$$$
