72894
  -OEChem-10241303003D

 19 19  0     0  0  0  0  0  0999 V2000
    1.7655    0.2154    0.1071 S   0  0  0  0  0  0  0  0  0  0  0  0
    2.1931    1.4728    0.7007 O   0  0  0  0  0  0  0  0  0  0  0  0
    2.2145   -1.0465    0.6748 O   0  0  0  0  0  0  0  0  0  0  0  0
    2.1378    0.2339   -1.5594 N   0  0  0  0  0  0  0  0  0  0  0  0
   -0.0401   -2.2401    0.0249 N   0  0  0  0  0  0  0  0  0  0  0  0
    0.0155    0.2033    0.0529 C   0  0  0  0  0  0  0  0  0  0  0  0
   -0.7019   -0.9923    0.0178 C   0  0  0  0  0  0  0  0  0  0  0  0
   -0.6611    1.4231    0.0438 C   0  0  0  0  0  0  0  0  0  0  0  0
   -2.0959   -0.9684   -0.0266 C   0  0  0  0  0  0  0  0  0  0  0  0
   -2.0551    1.4472   -0.0003 C   0  0  0  0  0  0  0  0  0  0  0  0
   -2.7724    0.2515   -0.0356 C   0  0  0  0  0  0  0  0  0  0  0  0
   -0.1264    2.3685    0.0623 H   0  0  0  0  0  0  0  0  0  0  0  0
   -2.6677   -1.8924   -0.0547 H   0  0  0  0  0  0  0  0  0  0  0  0
   -2.5822    2.3968   -0.0094 H   0  0  0  0  0  0  0  0  0  0  0  0
   -3.8578    0.2703   -0.0707 H   0  0  0  0  0  0  0  0  0  0  0  0
    2.5229    1.1013   -1.9528 H   0  0  0  0  0  0  0  0  0  0  0  0
    2.5347   -0.6204   -1.9691 H   0  0  0  0  0  0  0  0  0  0  0  0
   -0.5860   -3.0913   -0.0083 H   0  0  0  0  0  0  0  0  0  0  0  0
    0.9660   -2.3026   -0.0256 H   0  0  0  0  0  0  0  0  0  0  0  0
  1  2  2  0  0  0  0
  1  3  2  0  0  0  0
  1  4  1  0  0  0  0
  1  6  1  0  0  0  0
  4 16  1  0  0  0  0
  4 17  1  0  0  0  0
  5  7  1  0  0  0  0
  5 18  1  0  0  0  0
  5 19  1  0  0  0  0
  6  7  1  0  0  0  0
  6  8  2  0  0  0  0
  7  9  2  0  0  0  0
  8 10  1  0  0  0  0
  8 12  1  0  0  0  0
  9 11  1  0  0  0  0
  9 13  1  0  0  0  0
 10 11  2  0  0  0  0
 10 14  1  0  0  0  0
 11 15  1  0  0  0  0
M  END
> <PUBCHEM_COMPOUND_CID>
72894

> <PUBCHEM_CONFORMER_RMSD>
0.4

> <PUBCHEM_CONFORMER_DIVERSEORDER>
1
2

> <PUBCHEM_MMFF94_PARTIAL_CHARGES>
19
1 1.45
10 -0.15
11 -0.15
12 0.15
13 0.15
14 0.15
15 0.15
16 0.42
17 0.42
18 0.4
19 0.4
2 -0.65
3 -0.65
4 -0.98
5 -0.9
6 -0.01
7 0.1
8 -0.15
9 -0.15

> <PUBCHEM_EFFECTIVE_ROTOR_COUNT>
1

> <PUBCHEM_PHARMACOPHORE_FEATURES>
6
1 2 acceptor
1 3 acceptor
1 4 donor
1 5 cation
1 5 donor
6 6 7 8 9 10 11 rings

> <PUBCHEM_HEAVY_ATOM_COUNT>
11

> <PUBCHEM_ATOM_DEF_STEREO_COUNT>
0

> <PUBCHEM_ATOM_UDEF_STEREO_COUNT>
0

> <PUBCHEM_BOND_DEF_STEREO_COUNT>
0

> <PUBCHEM_BOND_UDEF_STEREO_COUNT>
0

> <PUBCHEM_ISOTOPIC_ATOM_COUNT>
0

> <PUBCHEM_COMPONENT_COUNT>
1

> <PUBCHEM_CACTVS_TAUTO_COUNT>
1

> <PUBCHEM_CONFORMER_ID>
00011CBE00000001

> <PUBCHEM_MMFF94_ENERGY>
22.2424

> <PUBCHEM_FEATURE_SELFOVERLAP>
30.463

> <PUBCHEM_SHAPE_FINGERPRINT>
12524768 44 18129386062632842421
12716758 59 18340216274945289246
12897270 3 18411699868142305213
12932764 1 18411423912119455049
14325111 11 18410851053739895881
15775835 57 18336270058888404744
16945 1 18270119002902601481
20645464 45 18131066077882606536
20645476 183 17894923965474573743
20871998 184 17912928567190085719
21028194 46 18261954055250746105
21040471 1 18409168817886369255
23552423 10 18187083918848100131
23559900 14 18128543661719347934
2748010 2 18411134775015975413
369184 2 18341041982439652185
5084963 1 17749668493593341289
66348 1 18410011061031156697
8030462 33 18334013908225174559

> <PUBCHEM_SHAPE_MULTIPOLES>
208.52
3.67
1.81
0.84
0.11
0.4
0.23
-0.57
0.06
-0.17
-0.17
0.53
-0.07
-0.01

> <PUBCHEM_SHAPE_SELFOVERLAP>
421.837

> <PUBCHEM_SHAPE_VOLUME>
122

> <PUBCHEM_COORDINATE_TYPE>
2
5
10

$$$$
