65690
  -OEChem-10241303023D

 24 23  0     1  0  0  0  0  0999 V2000
   -1.6464    0.0387    0.7268 S   0  0  0  0  0  0  0  0  0  0  0  0
    1.4027    2.2123    1.1132 O   0  0  0  0  0  0  0  0  0  0  0  0
    0.2946    2.9036   -0.7400 O   0  0  0  0  0  0  0  0  0  0  0  0
    2.4914   -1.7308   -1.1962 O   0  0  0  0  0  0  0  0  0  0  0  0
   -3.2512   -0.9809   -1.1126 O   0  0  0  0  0  0  0  0  0  0  0  0
    1.5939   -0.2729    0.3819 N   0  0  0  0  0  0  0  0  0  0  0  0
    0.8246    0.5477   -0.5199 C   0  0  1  0  0  0  0  0  0  0  0  0
   -0.5794   -0.0166   -0.7512 C   0  0  0  0  0  0  0  0  0  0  0  0
    0.7980    2.0022   -0.0805 C   0  0  0  0  0  0  0  0  0  0  0  0
    2.3646   -1.3465   -0.0366 C   0  0  0  0  0  0  0  0  0  0  0  0
    3.0838   -2.0145    1.1046 C   0  0  0  0  0  0  0  0  0  0  0  0
   -3.1308   -0.6264    0.0538 C   0  0  0  0  0  0  0  0  0  0  0  0
   -4.2457   -0.7159    1.0567 C   0  0  0  0  0  0  0  0  0  0  0  0
    1.3572    0.5419   -1.4799 H   0  0  0  0  0  0  0  0  0  0  0  0
   -0.5127   -1.0564   -1.0906 H   0  0  0  0  0  0  0  0  0  0  0  0
   -1.0736    0.5623   -1.5399 H   0  0  0  0  0  0  0  0  0  0  0  0
    1.5544   -0.0545    1.3735 H   0  0  0  0  0  0  0  0  0  0  0  0
    3.5248   -2.9548    0.7625 H   0  0  0  0  0  0  0  0  0  0  0  0
    3.8769   -1.3571    1.4710 H   0  0  0  0  0  0  0  0  0  0  0  0
    2.3845   -2.2308    1.9174 H   0  0  0  0  0  0  0  0  0  0  0  0
   -4.4999    0.2793    1.4319 H   0  0  0  0  0  0  0  0  0  0  0  0
   -3.9609   -1.3719    1.8840 H   0  0  0  0  0  0  0  0  0  0  0  0
   -5.1321   -1.1378    0.5734 H   0  0  0  0  0  0  0  0  0  0  0  0
    1.3801    3.1575    1.3745 H   0  0  0  0  0  0  0  0  0  0  0  0
  1  8  1  0  0  0  0
  1 12  1  0  0  0  0
  2  9  1  0  0  0  0
  2 24  1  0  0  0  0
  3  9  2  0  0  0  0
  4 10  2  0  0  0  0
  5 12  2  0  0  0  0
  6  7  1  0  0  0  0
  6 10  1  0  0  0  0
  6 17  1  0  0  0  0
  7  8  1  0  0  0  0
  7  9  1  0  0  0  0
  7 14  1  0  0  0  0
  8 15  1  0  0  0  0
  8 16  1  0  0  0  0
 10 11  1  0  0  0  0
 11 18  1  0  0  0  0
 11 19  1  0  0  0  0
 11 20  1  0  0  0  0
 12 13  1  0  0  0  0
 13 21  1  0  0  0  0
 13 22  1  0  0  0  0
 13 23  1  0  0  0  0
M  END
> <PUBCHEM_COMPOUND_CID>
65690

> <PUBCHEM_CONFORMER_RMSD>
0.6

> <PUBCHEM_CONFORMER_DIVERSEORDER>
1
92
57
59
73
94
101
97
104
93
43
102
106
12
96
87
10
6
64
50
4
84
76
58
33
88
95
69
41
78
80
90
61
86
36
44
27
26
66
13
9
82
98
81
67
103
99
46
22
35
83
18
15
85
5
62
105
40
32
74
54
79
37
48
65
89
16
53
70
31
68
49
8
56
100
30
75
45
47
55
21
34
91
11
29
51
23
28
25
24
38
19
77
20
72
39
17
60
2
14
42
52
63
71
7
3

> <PUBCHEM_MMFF94_PARTIAL_CHARGES>
15
1 -0.37
10 0.57
11 0.06
12 0.65
13 0.06
17 0.37
2 -0.65
24 0.5
3 -0.57
4 -0.57
5 -0.57
6 -0.73
7 0.36
8 0.23
9 0.66

> <PUBCHEM_EFFECTIVE_ROTOR_COUNT>
6

> <PUBCHEM_PHARMACOPHORE_FEATURES>
5
1 2 acceptor
1 3 acceptor
1 4 acceptor
1 6 donor
3 2 3 9 anion

> <PUBCHEM_HEAVY_ATOM_COUNT>
13

> <PUBCHEM_ATOM_DEF_STEREO_COUNT>
1

> <PUBCHEM_ATOM_UDEF_STEREO_COUNT>
0

> <PUBCHEM_BOND_DEF_STEREO_COUNT>
0

> <PUBCHEM_BOND_UDEF_STEREO_COUNT>
0

> <PUBCHEM_ISOTOPIC_ATOM_COUNT>
0

> <PUBCHEM_COMPONENT_COUNT>
1

> <PUBCHEM_CACTVS_TAUTO_COUNT>
2

> <PUBCHEM_CONFORMER_ID>
0001009A00000001

> <PUBCHEM_MMFF94_ENERGY>
17.9262

> <PUBCHEM_FEATURE_SELFOVERLAP>
25.432

> <PUBCHEM_SHAPE_FINGERPRINT>
12932764 1 18269845362257514301
14252887 29 18343026558084071210
20097449 115 18336265656483473400
20339313 130 18411430504952224739
20361792 2 18410012100482067535
20559304 39 17988656215288065145
20645477 70 18338513153452442047
20671657 53 18334857195273991707
20711985 327 18271801302705955246
20871998 22 18341898429073039854
21524375 3 17551791846985726661
2255824 54 18266187303761181759
23500284 5 17899411987292614954
23526113 38 17385734611554898259
23598291 2 18201726184420955447
58734987 33 18409730638268751232
6049 1 17748823055784105349
7364860 26 18200600322651840416
7615 1 17703509999775887567
81228 2 17977950077126284672
81539 233 18117558654929439108

> <PUBCHEM_SHAPE_MULTIPOLES>
242.93
5.94
2.58
1.18
5.16
1.88
-0.01
-4.77
-1.09
-2.18
-0.13
0.01
-0.2
0.01

> <PUBCHEM_SHAPE_SELFOVERLAP>
452.484

> <PUBCHEM_SHAPE_VOLUME>
152

> <PUBCHEM_COORDINATE_TYPE>
2
5
10

$$$$
12850517
  -OEChem-10241303023D

 24 23  0     1  0  0  0  0  0999 V2000
    1.6435   -0.1078   -0.7086 S   0  0  0  0  0  0  0  0  0  0  0  0
   -1.4370   -2.1923   -1.1416 O   0  0  0  0  0  0  0  0  0  0  0  0
   -0.3953   -2.9364    0.7295 O   0  0  0  0  0  0  0  0  0  0  0  0
   -2.4286    1.7747    1.1986 O   0  0  0  0  0  0  0  0  0  0  0  0
    3.2254    0.9784    1.1124 O   0  0  0  0  0  0  0  0  0  0  0  0
   -1.5714    0.2950   -0.3814 N   0  0  0  0  0  0  0  0  0  0  0  0
   -0.8459   -0.5629    0.5220 C   0  0  2  0  0  0  0  0  0  0  0  0
    0.5734   -0.0447    0.7668 C   0  0  0  0  0  0  0  0  0  0  0  0
   -0.8634   -2.0145    0.0724 C   0  0  0  0  0  0  0  0  0  0  0  0
   -2.3036    1.3950    0.0372 C   0  0  0  0  0  0  0  0  0  0  0  0
   -2.9403    2.1301   -1.1116 C   0  0  0  0  0  0  0  0  0  0  0  0
    3.1143    0.5970   -0.0464 C   0  0  0  0  0  0  0  0  0  0  0  0
    4.2290    0.6884   -1.0494 C   0  0  0  0  0  0  0  0  0  0  0  0
   -1.3873   -0.5448    1.4768 H   0  0  0  0  0  0  0  0  0  0  0  0
    1.0501   -0.6471    1.5484 H   0  0  0  0  0  0  0  0  0  0  0  0
    0.5329    0.9917    1.1211 H   0  0  0  0  0  0  0  0  0  0  0  0
   -1.5173    0.0911   -1.3755 H   0  0  0  0  0  0  0  0  0  0  0  0
   -3.6824    2.8369   -0.7304 H   0  0  0  0  0  0  0  0  0  0  0  0
   -2.1715    2.6771   -1.6641 H   0  0  0  0  0  0  0  0  0  0  0  0
   -3.4407    1.4264   -1.7830 H   0  0  0  0  0  0  0  0  0  0  0  0
    3.9351    1.3274   -1.8867 H   0  0  0  0  0  0  0  0  0  0  0  0
    4.4990   -0.3083   -1.4093 H   0  0  0  0  0  0  0  0  0  0  0  0
    5.1084    1.1309   -0.5715 H   0  0  0  0  0  0  0  0  0  0  0  0
   -1.4314   -3.1343   -1.4156 H   0  0  0  0  0  0  0  0  0  0  0  0
  1  8  1  0  0  0  0
  1 12  1  0  0  0  0
  2  9  1  0  0  0  0
  2 24  1  0  0  0  0
  3  9  2  0  0  0  0
  4 10  2  0  0  0  0
  5 12  2  0  0  0  0
  6  7  1  0  0  0  0
  6 10  1  0  0  0  0
  6 17  1  0  0  0  0
  7  8  1  0  0  0  0
  7  9  1  0  0  0  0
  7 14  1  0  0  0  0
  8 15  1  0  0  0  0
  8 16  1  0  0  0  0
 10 11  1  0  0  0  0
 11 18  1  0  0  0  0
 11 19  1  0  0  0  0
 11 20  1  0  0  0  0
 12 13  1  0  0  0  0
 13 21  1  0  0  0  0
 13 22  1  0  0  0  0
 13 23  1  0  0  0  0
M  END
> <PUBCHEM_COMPOUND_CID>
12850517

> <PUBCHEM_CONFORMER_RMSD>
0.6

> <PUBCHEM_CONFORMER_DIVERSEORDER>
1
94
95
81
74
52
86
28
55
91
2
33
63
78
89
65
76
36
62
75
88
58
90
10
82
64
60
92
18
93
66
41
84
50
35
20
68
16
96
46
45
83
38
51
44
56
7
85
39
22
70
30
42
77
73
79
71
29
31
80
49
21
43
23
4
27
12
87
47
59
69
13
26
32
11
8
17
53
34
24
97
15
37
72
40
14
48
54
57
9
19
6
61
3
25
67
5

> <PUBCHEM_MMFF94_PARTIAL_CHARGES>
15
1 -0.37
10 0.57
11 0.06
12 0.65
13 0.06
17 0.37
2 -0.65
24 0.5
3 -0.57
4 -0.57
5 -0.57
6 -0.73
7 0.36
8 0.23
9 0.66

> <PUBCHEM_EFFECTIVE_ROTOR_COUNT>
6

> <PUBCHEM_PHARMACOPHORE_FEATURES>
5
1 2 acceptor
1 3 acceptor
1 4 acceptor
1 6 donor
3 2 3 9 anion

> <PUBCHEM_HEAVY_ATOM_COUNT>
13

> <PUBCHEM_ATOM_DEF_STEREO_COUNT>
1

> <PUBCHEM_ATOM_UDEF_STEREO_COUNT>
0

> <PUBCHEM_BOND_DEF_STEREO_COUNT>
0

> <PUBCHEM_BOND_UDEF_STEREO_COUNT>
0

> <PUBCHEM_ISOTOPIC_ATOM_COUNT>
0

> <PUBCHEM_COMPONENT_COUNT>
1

> <PUBCHEM_CACTVS_TAUTO_COUNT>
2

> <PUBCHEM_CONFORMER_ID>
00C4155500000001

> <PUBCHEM_MMFF94_ENERGY>
17.8658

> <PUBCHEM_FEATURE_SELFOVERLAP>
25.432

> <PUBCHEM_SHAPE_FINGERPRINT>
1 1 18120655721370632791
12138202 97 18343022194301807454
12500047 106 18410855469446038318
12716758 59 18341896316001754442
12932764 1 18270126828639048074
15775835 57 18186800240558629764
18186145 218 18198912413516157900
18534176 82 18272937167031610364
19837323 101 18409450305874874835
20524608 308 18343025522906950854
20645477 56 18338806701360539056
20711985 344 18267578198702642299
21499 59 18264202526602226085
21524375 3 18338795594184461543
23402539 116 18339916138446681407
23419403 2 17263622738790431655
23557571 272 18055064617557047824
23559900 14 18201444662927500500
23598294 1 18261674878139490170
25 1 18058178228032813420
305870 269 18189333463814251080
6049 1 17915188029768635600
6333449 129 18342461456098443604
7615 1 17823125899789811092
81228 2 18194684993181293803
81539 233 18043808689358264685
88987 49 18337100272330839096

> <PUBCHEM_SHAPE_MULTIPOLES>
242.93
5.81
2.65
1.18
5.42
1.8
0.01
-4.6
1.04
-2.37
0.15
0.01
-0.2
0.01

> <PUBCHEM_SHAPE_SELFOVERLAP>
452.562

> <PUBCHEM_SHAPE_VOLUME>
152

> <PUBCHEM_COORDINATE_TYPE>
2
5
10

$$$$
