10334118
  -OEChem-10241303043D

 36 37  0     0  0  0  0  0  0999 V2000
   -0.7319   -3.2486    0.3726 O   0  0  0  0  0  0  0  0  0  0  0  0
    2.7835    3.0267    1.1080 O   0  0  0  0  0  0  0  0  0  0  0  0
   -1.1569    2.9608   -1.0241 O   0  0  0  0  0  0  0  0  0  0  0  0
   -0.4576    1.1525   -2.2104 O   0  0  0  0  0  0  0  0  0  0  0  0
   -0.6112   -1.1024   -0.5873 N   0  0  0  0  0  0  0  0  0  0  0  0
    2.3291   -2.4369   -0.2241 C   0  0  0  0  0  0  0  0  0  0  0  0
    1.1002   -2.7537   -1.0785 C   0  0  0  0  0  0  0  0  0  0  0  0
    2.4503   -0.9756    0.1320 C   0  0  0  0  0  0  0  0  0  0  0  0
   -0.1916   -2.4162   -0.3504 C   0  0  0  0  0  0  0  0  0  0  0  0
   -1.7445   -0.4550   -0.0867 C   0  0  0  0  0  0  0  0  0  0  0  0
    3.1530   -0.1270   -0.7089 C   0  0  0  0  0  0  0  0  0  0  0  0
    1.8573   -0.5080    1.2943 C   0  0  0  0  0  0  0  0  0  0  0  0
   -2.0222    0.8700   -0.4227 C   0  0  0  0  0  0  0  0  0  0  0  0
    3.2656    1.2237   -0.3790 C   0  0  0  0  0  0  0  0  0  0  0  0
    1.9698    0.8426    1.6240 C   0  0  0  0  0  0  0  0  0  0  0  0
   -2.6037   -1.1544    0.7607 C   0  0  0  0  0  0  0  0  0  0  0  0
    2.6740    1.7085    0.7874 C   0  0  0  0  0  0  0  0  0  0  0  0
   -3.1591    1.4956    0.0888 C   0  0  0  0  0  0  0  0  0  0  0  0
   -3.7407   -0.5288    1.2723 C   0  0  0  0  0  0  0  0  0  0  0  0
   -4.0184    0.7961    0.9363 C   0  0  0  0  0  0  0  0  0  0  0  0
   -1.1447    1.6300   -1.3042 C   0  0  0  0  0  0  0  0  0  0  0  0
    3.2329   -2.7607   -0.7557 H   0  0  0  0  0  0  0  0  0  0  0  0
    2.3012   -3.0307    0.6992 H   0  0  0  0  0  0  0  0  0  0  0  0
    1.0813   -3.8222   -1.3223 H   0  0  0  0  0  0  0  0  0  0  0  0
    1.1398   -2.2120   -2.0313 H   0  0  0  0  0  0  0  0  0  0  0  0
   -0.0247   -0.5483   -1.2054 H   0  0  0  0  0  0  0  0  0  0  0  0
    3.6147   -0.4947   -1.6207 H   0  0  0  0  0  0  0  0  0  0  0  0
    1.3112   -1.1734    1.9570 H   0  0  0  0  0  0  0  0  0  0  0  0
    3.8143    1.8936   -1.0355 H   0  0  0  0  0  0  0  0  0  0  0  0
    1.5041    1.2077    2.5355 H   0  0  0  0  0  0  0  0  0  0  0  0
   -2.4648   -2.1803    1.0688 H   0  0  0  0  0  0  0  0  0  0  0  0
   -3.4116    2.5221   -0.1638 H   0  0  0  0  0  0  0  0  0  0  0  0
   -4.4114   -1.0726    1.9314 H   0  0  0  0  0  0  0  0  0  0  0  0
   -4.9055    1.2818    1.3322 H   0  0  0  0  0  0  0  0  0  0  0  0
    2.3142    3.1873    1.9447 H   0  0  0  0  0  0  0  0  0  0  0  0
   -0.5634    3.4650   -1.6207 H   0  0  0  0  0  0  0  0  0  0  0  0
  1  9  2  0  0  0  0
  2 17  1  0  0  0  0
  2 35  1  0  0  0  0
  3 21  1  0  0  0  0
  3 36  1  0  0  0  0
  4 21  2  0  0  0  0
  5  9  1  0  0  0  0
  5 10  1  0  0  0  0
  5 26  1  0  0  0  0
  6  7  1  0  0  0  0
  6  8  1  0  0  0  0
  6 22  1  0  0  0  0
  6 23  1  0  0  0  0
  7  9  1  0  0  0  0
  7 24  1  0  0  0  0
  7 25  1  0  0  0  0
  8 11  2  0  0  0  0
  8 12  1  0  0  0  0
 10 13  1  0  0  0  0
 10 16  2  0  0  0  0
 11 14  1  0  0  0  0
 11 27  1  0  0  0  0
 12 15  2  0  0  0  0
 12 28  1  0  0  0  0
 13 18  2  0  0  0  0
 13 21  1  0  0  0  0
 14 17  2  0  0  0  0
 14 29  1  0  0  0  0
 15 17  1  0  0  0  0
 15 30  1  0  0  0  0
 16 19  1  0  0  0  0
 16 31  1  0  0  0  0
 18 20  1  0  0  0  0
 18 32  1  0  0  0  0
 19 20  2  0  0  0  0
 19 33  1  0  0  0  0
 20 34  1  0  0  0  0
M  END
> <PUBCHEM_COMPOUND_CID>
10334118

> <PUBCHEM_CONFORMER_RMSD>
0.8

> <PUBCHEM_CONFORMER_DIVERSEORDER>
1
2
24
20
3
23
25
8
14
19
4
18
6
5
21
26
9
17
13
15
11
22
12
27
7
10
16

> <PUBCHEM_MMFF94_PARTIAL_CHARGES>
32
1 -0.57
10 0.12
11 -0.15
12 -0.15
13 0.09
14 -0.15
15 -0.15
16 -0.15
17 0.08
18 -0.15
19 -0.15
2 -0.53
20 -0.15
21 0.63
26 0.37
27 0.15
28 0.15
29 0.15
3 -0.65
30 0.15
31 0.15
32 0.15
33 0.15
34 0.15
35 0.45
36 0.5
4 -0.57
5 -0.55
6 0.14
7 0.06
8 -0.14
9 0.57

> <PUBCHEM_EFFECTIVE_ROTOR_COUNT>
6

> <PUBCHEM_PHARMACOPHORE_FEATURES>
8
1 1 acceptor
1 2 donor
1 3 acceptor
1 4 acceptor
1 5 donor
3 3 4 21 anion
6 10 13 16 18 19 20 rings
6 8 11 12 14 15 17 rings

> <PUBCHEM_HEAVY_ATOM_COUNT>
21

> <PUBCHEM_ATOM_DEF_STEREO_COUNT>
0

> <PUBCHEM_ATOM_UDEF_STEREO_COUNT>
0

> <PUBCHEM_BOND_DEF_STEREO_COUNT>
0

> <PUBCHEM_BOND_UDEF_STEREO_COUNT>
0

> <PUBCHEM_ISOTOPIC_ATOM_COUNT>
0

> <PUBCHEM_COMPONENT_COUNT>
1

> <PUBCHEM_CACTVS_TAUTO_COUNT>
6

> <PUBCHEM_CONFORMER_ID>
009DAFA600000001

> <PUBCHEM_MMFF94_ENERGY>
62.7379

> <PUBCHEM_FEATURE_SELFOVERLAP>
40.654

> <PUBCHEM_SHAPE_FINGERPRINT>
10165383 225 18269851933220074808
10366900 7 18117847599033690407
10498660 4 18194109944136272510
12403259 226 18046632209343653183
12633257 1 18120094979214797683
128993 33 18272644675453365920
14142880 1 17836348711917909104
14223421 5 18262238815787715533
14386348 128 18411979156917384544
18219364 16 18266730286321953499
18981168 100 18269815610575884634
19930381 70 18343580763615713241
21041028 32 17695632857555794838
21524375 3 18341041973829222686
23559900 14 17970073240523603359
238 59 18052786240042253341
2748010 2 18261104132630580909
31174 14 18339926996002634007
3524813 1 18192719938190238895
3797600 57 16590018128364664494
44154327 71 18261404385093513804
49207404 50 18410302414738869987
6287921 2 17977395154656987844
6442390 28 18198632218366205602
81228 2 17907277098924695994

> <PUBCHEM_SHAPE_MULTIPOLES>
403.71
6.23
3.45
1.48
2.38
0.67
-0.16
-1.98
1.88
-1.43
-0.38
0.01
-0.55
1.25

> <PUBCHEM_SHAPE_SELFOVERLAP>
864.987

> <PUBCHEM_SHAPE_VOLUME>
221.6

> <PUBCHEM_COORDINATE_TYPE>
2
5
10

$$$$
