5478979
  -OEChem-10241302463D

 53 54  0     1  0  0  0  0  0999 V2000
   -0.8191    1.1046   -1.2664 O   0  0  0  0  0  0  0  0  0  0  0  0
    0.0136    2.1026    2.1550 O   0  0  0  0  0  0  0  0  0  0  0  0
   -2.6676    0.6428   -2.4737 O   0  0  0  0  0  0  0  0  0  0  0  0
   -0.5406    2.2838    0.8471 C   0  0  1  0  0  0  0  0  0  0  0  0
   -0.0752    1.0865   -0.0217 C   0  0  2  0  0  0  0  0  0  0  0  0
   -2.0854    2.3562    0.9686 C   0  0  0  0  0  0  0  0  0  0  0  0
    1.3900    1.1038   -0.3972 C   0  0  0  0  0  0  0  0  0  0  0  0
    2.3264    0.2090   -0.0229 C   0  0  0  0  0  0  0  0  0  0  0  0
   -2.7701    1.1181    1.5589 C   0  0  0  0  0  0  0  0  0  0  0  0
   -0.0461    3.6387    0.3115 C   0  0  0  0  0  0  0  0  0  0  0  0
    3.7427    0.3235   -0.5167 C   0  0  0  0  0  0  0  0  0  0  0  0
    2.0520   -0.9628    0.8930 C   0  0  0  0  0  0  0  0  0  0  0  0
   -2.4311   -0.5189   -0.4421 C   0  0  0  0  0  0  0  0  0  0  0  0
   -2.7821   -0.1877    0.8130 C   0  0  0  0  0  0  0  0  0  0  0  0
    1.6607   -2.2264    0.1093 C   0  0  0  0  0  0  0  0  0  0  0  0
   -2.5740   -1.9349   -0.9570 C   0  0  0  0  0  0  0  0  0  0  0  0
   -2.0035    0.4705   -1.4555 C   0  0  0  0  0  0  0  0  0  0  0  0
    0.5282   -2.9915    0.7600 C   0  0  0  0  0  0  0  0  0  0  0  0
   -1.2323   -2.6724   -1.0923 C   0  0  0  0  0  0  0  0  0  0  0  0
    3.7787    0.2056   -2.0352 C   0  0  0  0  0  0  0  0  0  0  0  0
    4.3680    1.6341   -0.0527 C   0  0  0  0  0  0  0  0  0  0  0  0
   -0.6981   -3.1652    0.2272 C   0  0  0  0  0  0  0  0  0  0  0  0
    0.8650   -3.6199    2.0896 C   0  0  0  0  0  0  0  0  0  0  0  0
   -0.2676    0.1564    0.5119 H   0  0  0  0  0  0  0  0  0  0  0  0
   -2.5429    2.6154    0.0064 H   0  0  0  0  0  0  0  0  0  0  0  0
   -2.3320    3.1880    1.6440 H   0  0  0  0  0  0  0  0  0  0  0  0
    1.6779    1.9100   -1.0692 H   0  0  0  0  0  0  0  0  0  0  0  0
   -3.8190    1.3794    1.7518 H   0  0  0  0  0  0  0  0  0  0  0  0
   -2.3289    0.9236    2.5451 H   0  0  0  0  0  0  0  0  0  0  0  0
    1.0447    3.7202    0.3685 H   0  0  0  0  0  0  0  0  0  0  0  0
   -0.3624    3.8058   -0.7231 H   0  0  0  0  0  0  0  0  0  0  0  0
   -0.4325    4.4626    0.9235 H   0  0  0  0  0  0  0  0  0  0  0  0
    4.3465   -0.4968   -0.1087 H   0  0  0  0  0  0  0  0  0  0  0  0
    2.9373   -1.1710    1.5082 H   0  0  0  0  0  0  0  0  0  0  0  0
    1.2815   -0.6903    1.6241 H   0  0  0  0  0  0  0  0  0  0  0  0
   -3.1392   -1.0060    1.4410 H   0  0  0  0  0  0  0  0  0  0  0  0
    2.5347   -2.8878    0.0402 H   0  0  0  0  0  0  0  0  0  0  0  0
    1.4188   -1.9769   -0.9279 H   0  0  0  0  0  0  0  0  0  0  0  0
   -0.2745    2.8474    2.7099 H   0  0  0  0  0  0  0  0  0  0  0  0
   -3.2568   -2.5129   -0.3201 H   0  0  0  0  0  0  0  0  0  0  0  0
   -3.0566   -1.9063   -1.9427 H   0  0  0  0  0  0  0  0  0  0  0  0
   -0.5179   -2.0444   -1.6308 H   0  0  0  0  0  0  0  0  0  0  0  0
   -1.3964   -3.5575   -1.7201 H   0  0  0  0  0  0  0  0  0  0  0  0
    3.2871    1.0461   -2.5370 H   0  0  0  0  0  0  0  0  0  0  0  0
    3.2989   -0.7195   -2.3743 H   0  0  0  0  0  0  0  0  0  0  0  0
    4.8162    0.1833   -2.3879 H   0  0  0  0  0  0  0  0  0  0  0  0
    4.3108    1.7352    1.0371 H   0  0  0  0  0  0  0  0  0  0  0  0
    3.8891    2.5119   -0.5000 H   0  0  0  0  0  0  0  0  0  0  0  0
    5.4277    1.6675   -0.3303 H   0  0  0  0  0  0  0  0  0  0  0  0
   -1.4120   -3.7634    0.7934 H   0  0  0  0  0  0  0  0  0  0  0  0
    1.7280   -4.2859    1.9853 H   0  0  0  0  0  0  0  0  0  0  0  0
    0.0379   -4.2150    2.4911 H   0  0  0  0  0  0  0  0  0  0  0  0
    1.1063   -2.8516    2.8307 H   0  0  0  0  0  0  0  0  0  0  0  0
  1  5  1  0  0  0  0
  1 17  1  0  0  0  0
  2  4  1  0  0  0  0
  2 39  1  0  0  0  0
  3 17  2  0  0  0  0
  4  5  1  0  0  0  0
  4  6  1  0  0  0  0
  4 10  1  0  0  0  0
  5  7  1  0  0  0  0
  5 24  1  0  0  0  0
  6  9  1  0  0  0  0
  6 25  1  0  0  0  0
  6 26  1  0  0  0  0
  7  8  2  0  0  0  0
  7 27  1  0  0  0  0
  8 11  1  0  0  0  0
  8 12  1  0  0  0  0
  9 14  1  0  0  0  0
  9 28  1  0  0  0  0
  9 29  1  0  0  0  0
 10 30  1  0  0  0  0
 10 31  1  0  0  0  0
 10 32  1  0  0  0  0
 11 20  1  0  0  0  0
 11 21  1  0  0  0  0
 11 33  1  0  0  0  0
 12 15  1  0  0  0  0
 12 34  1  0  0  0  0
 12 35  1  0  0  0  0
 13 14  2  0  0  0  0
 13 16  1  0  0  0  0
 13 17  1  0  0  0  0
 14 36  1  0  0  0  0
 15 18  1  0  0  0  0
 15 37  1  0  0  0  0
 15 38  1  0  0  0  0
 16 19  1  0  0  0  0
 16 40  1  0  0  0  0
 16 41  1  0  0  0  0
 18 22  2  0  0  0  0
 18 23  1  0  0  0  0
 19 22  1  0  0  0  0
 19 42  1  0  0  0  0
 19 43  1  0  0  0  0
 20 44  1  0  0  0  0
 20 45  1  0  0  0  0
 20 46  1  0  0  0  0
 21 47  1  0  0  0  0
 21 48  1  0  0  0  0
 21 49  1  0  0  0  0
 22 50  1  0  0  0  0
 23 51  1  0  0  0  0
 23 52  1  0  0  0  0
 23 53  1  0  0  0  0
M  END
> <PUBCHEM_COMPOUND_CID>
5478979

> <PUBCHEM_CONFORMER_RMSD>
0.6

> <PUBCHEM_CONFORMER_DIVERSEORDER>
1

> <PUBCHEM_MMFF94_PARTIAL_CHARGES>
23
1 -0.43
11 0.14
12 0.14
13 -0.12
14 -0.29
15 0.14
16 0.14
17 0.71
18 -0.28
19 0.14
2 -0.68
22 -0.29
23 0.14
27 0.15
3 -0.57
36 0.15
39 0.4
4 0.28
5 0.42
50 0.15
7 -0.29
8 -0.28
9 0.14

> <PUBCHEM_EFFECTIVE_ROTOR_COUNT>
2.6

> <PUBCHEM_PHARMACOPHORE_FEATURES>
4
1 2 acceptor
1 2 donor
1 3 acceptor
3 11 20 21 hydrophobe

> <PUBCHEM_HEAVY_ATOM_COUNT>
23

> <PUBCHEM_ATOM_DEF_STEREO_COUNT>
2

> <PUBCHEM_ATOM_UDEF_STEREO_COUNT>
0

> <PUBCHEM_BOND_DEF_STEREO_COUNT>
3

> <PUBCHEM_BOND_UDEF_STEREO_COUNT>
0

> <PUBCHEM_ISOTOPIC_ATOM_COUNT>
0

> <PUBCHEM_COMPONENT_COUNT>
1

> <PUBCHEM_CACTVS_TAUTO_COUNT>
1

> <PUBCHEM_CONFORMER_ID>
00539A4300000001

> <PUBCHEM_MMFF94_ENERGY>
61.9508

> <PUBCHEM_FEATURE_SELFOVERLAP>
20.297

> <PUBCHEM_SHAPE_FINGERPRINT>
1100329 8 18196098973872040035
121448 382 18335977662321361864
12156800 1 16466511043567785179
12553582 1 18342173392562617185
128993 33 18196944266206386306
13027679 85 18197777902394896701
13140716 1 17398958665826226714
14251740 79 18410300199010635102
14251745 187 17544465809863046672
14251751 93 17768551403700110094
14787075 74 17980753059020669068
15209289 33 18268436921652541163
15279307 12 18195254321240095272
16945 1 18412255134272795860
18981168 100 14331684891975046056
20600515 1 17981568793326937096
20691752 17 17467040365825782735
20775438 99 16327906857327878894
21141583 151 18268993262052051678
23557571 272 18051991495869265372
23558518 356 18342472443263285308
35225 105 17688080560933917703
469060 322 17243596457213559026
6438718 38 17915202301459806274
81228 2 18269007538634126432
90525 40 17838904732728490872

> <PUBCHEM_SHAPE_MULTIPOLES>
455.72
5.43
4.4
1.89
4.74
1.94
0.24
-1.47
1.76
-0.66
-2.06
-0.58
0.13
-1.02

> <PUBCHEM_SHAPE_SELFOVERLAP>
924.46

> <PUBCHEM_SHAPE_VOLUME>
263.2

> <PUBCHEM_COORDINATE_TYPE>
2
5
10

$$$$
