3032771
  -OEChem-10241302483D

 54 55  0     0  0  0  0  0  0999 V2000
    0.5430   -0.3086    0.6393 S   0  0  0  0  0  0  0  0  0  0  0  0
    5.1022    0.5188   -0.0594 P   0  0  0  0  0  0  0  0  0  0  0  0
    3.6709    0.0506   -0.6484 O   0  0  0  0  0  0  0  0  0  0  0  0
   -0.1580    2.7015    3.1709 O   0  0  0  0  0  0  0  0  0  0  0  0
   -1.1222   -1.1599   -1.2220 O   0  0  0  0  0  0  0  0  0  0  0  0
    6.0263    0.5960   -1.3843 O   0  0  0  0  0  0  0  0  0  0  0  0
    4.8709    2.0727    0.3238 O   0  0  0  0  0  0  0  0  0  0  0  0
    5.6470   -0.3400    1.0442 O   0  0  0  0  0  0  0  0  0  0  0  0
   -0.2959    2.5581    0.8342 N   0  0  0  0  0  0  0  0  0  0  0  0
   -4.1016    0.1649    0.3461 N   0  0  0  0  0  0  0  0  0  0  0  0
   -3.5875    1.0556   -1.8334 N   0  0  0  0  0  0  0  0  0  0  0  0
   -3.1142    1.1074    2.2854 N   0  0  0  0  0  0  0  0  0  0  0  0
    0.3655    2.2219   -0.3220 C   0  0  0  0  0  0  0  0  0  0  0  0
   -1.6630    3.0459    0.7260 C   0  0  0  0  0  0  0  0  0  0  0  0
    0.8340    0.9693   -0.5373 C   0  0  0  0  0  0  0  0  0  0  0  0
    1.5866    0.5582   -1.7924 C   0  0  0  0  0  0  0  0  0  0  0  0
   -2.5808    2.0181    0.1298 C   0  0  0  0  0  0  0  0  0  0  0  0
    3.0897    0.8144   -1.6966 C   0  0  0  0  0  0  0  0  0  0  0  0
    0.5166    3.3754   -1.2767 C   0  0  0  0  0  0  0  0  0  0  0  0
   -3.2757    1.0899    0.8779 C   0  0  0  0  0  0  0  0  0  0  0  0
    0.3195    2.4369    2.0726 C   0  0  0  0  0  0  0  0  0  0  0  0
   -2.7774    1.9531   -1.2346 C   0  0  0  0  0  0  0  0  0  0  0  0
   -0.3527   -1.4719   -0.3212 C   0  0  0  0  0  0  0  0  0  0  0  0
   -4.2093    0.2039   -0.9957 C   0  0  0  0  0  0  0  0  0  0  0  0
   -0.1897   -2.8982    0.0590 C   0  0  0  0  0  0  0  0  0  0  0  0
   -5.1137   -0.8035   -1.6207 C   0  0  0  0  0  0  0  0  0  0  0  0
   -1.2539   -3.7870   -0.0946 C   0  0  0  0  0  0  0  0  0  0  0  0
    1.0276   -3.3495    0.5693 C   0  0  0  0  0  0  0  0  0  0  0  0
   -1.1009   -5.1267    0.2623 C   0  0  0  0  0  0  0  0  0  0  0  0
    1.1806   -4.6893    0.9259 C   0  0  0  0  0  0  0  0  0  0  0  0
    0.1163   -5.5779    0.7724 C   0  0  0  0  0  0  0  0  0  0  0  0
   -2.0308    3.3717    1.7060 H   0  0  0  0  0  0  0  0  0  0  0  0
   -1.6713    3.9600    0.1183 H   0  0  0  0  0  0  0  0  0  0  0  0
    1.4331   -0.5058   -2.0069 H   0  0  0  0  0  0  0  0  0  0  0  0
    1.1823    1.0860   -2.6645 H   0  0  0  0  0  0  0  0  0  0  0  0
    3.2831    1.8807   -1.5453 H   0  0  0  0  0  0  0  0  0  0  0  0
    3.5675    0.5187   -2.6367 H   0  0  0  0  0  0  0  0  0  0  0  0
    1.3386    3.2279   -1.9827 H   0  0  0  0  0  0  0  0  0  0  0  0
    0.7550    4.2966   -0.7315 H   0  0  0  0  0  0  0  0  0  0  0  0
   -0.3853    3.5524   -1.8636 H   0  0  0  0  0  0  0  0  0  0  0  0
    1.3715    2.1125    1.9956 H   0  0  0  0  0  0  0  0  0  0  0  0
   -2.3107    2.6471   -1.9218 H   0  0  0  0  0  0  0  0  0  0  0  0
   -3.6504    0.4218    2.8040 H   0  0  0  0  0  0  0  0  0  0  0  0
   -2.2123    1.3672    2.6642 H   0  0  0  0  0  0  0  0  0  0  0  0
   -4.5984   -1.7657   -1.6950 H   0  0  0  0  0  0  0  0  0  0  0  0
   -6.0177   -0.9338   -1.0177 H   0  0  0  0  0  0  0  0  0  0  0  0
   -5.4171   -0.4914   -2.6249 H   0  0  0  0  0  0  0  0  0  0  0  0
   -2.2106   -3.4517   -0.4865 H   0  0  0  0  0  0  0  0  0  0  0  0
    1.8926   -2.7019    0.6766 H   0  0  0  0  0  0  0  0  0  0  0  0
   -1.9296   -5.8185    0.1435 H   0  0  0  0  0  0  0  0  0  0  0  0
    2.1304   -5.0429    1.3165 H   0  0  0  0  0  0  0  0  0  0  0  0
    0.2360   -6.6214    1.0488 H   0  0  0  0  0  0  0  0  0  0  0  0
    6.9856    0.7747   -1.2840 H   0  0  0  0  0  0  0  0  0  0  0  0
    5.5942    2.5649    0.7673 H   0  0  0  0  0  0  0  0  0  0  0  0
  1 15  1  0  0  0  0
  1 23  1  0  0  0  0
  2  3  1  0  0  0  0
  2  6  1  0  0  0  0
  2  7  1  0  0  0  0
  2  8  2  0  0  0  0
  3 18  1  0  0  0  0
  4 21  2  0  0  0  0
  5 23  2  0  0  0  0
  6 53  1  0  0  0  0
  7 54  1  0  0  0  0
  9 13  1  0  0  0  0
  9 14  1  0  0  0  0
  9 21  1  0  0  0  0
 10 20  2  0  0  0  0
 10 24  1  0  0  0  0
 11 22  1  0  0  0  0
 11 24  2  0  0  0  0
 12 20  1  0  0  0  0
 12 43  1  0  0  0  0
 12 44  1  0  0  0  0
 13 15  2  0  0  0  0
 13 19  1  0  0  0  0
 14 17  1  0  0  0  0
 14 32  1  0  0  0  0
 14 33  1  0  0  0  0
 15 16  1  0  0  0  0
 16 18  1  0  0  0  0
 16 34  1  0  0  0  0
 16 35  1  0  0  0  0
 17 20  1  0  0  0  0
 17 22  2  0  0  0  0
 18 36  1  0  0  0  0
 18 37  1  0  0  0  0
 19 38  1  0  0  0  0
 19 39  1  0  0  0  0
 19 40  1  0  0  0  0
 21 41  1  0  0  0  0
 22 42  1  0  0  0  0
 23 25  1  0  0  0  0
 24 26  1  0  0  0  0
 25 27  2  0  0  0  0
 25 28  1  0  0  0  0
 26 45  1  0  0  0  0
 26 46  1  0  0  0  0
 26 47  1  0  0  0  0
 27 29  1  0  0  0  0
 27 48  1  0  0  0  0
 28 30  2  0  0  0  0
 28 49  1  0  0  0  0
 29 31  2  0  0  0  0
 29 50  1  0  0  0  0
 30 31  1  0  0  0  0
 30 51  1  0  0  0  0
 31 52  1  0  0  0  0
M  END
> <PUBCHEM_COMPOUND_CID>
3032771

> <PUBCHEM_CONFORMER_RMSD>
1

> <PUBCHEM_CONFORMER_DIVERSEORDER>
1
2
83
51
88
29
71
72
103
116
35
43
61
120
49
75
84
102
106
32
48
105
89
82
97
22
14
101
9
15
8
20
30
92
52
53
57
80
37
42
45
41
85
81
98
25
55
24
111
78
59
13
121
39
67
114
79
112
122
76
74
27
46
95
10
119
44
7
38
77
109
108
94
23
50
17
34
62
26
107
4
54
19
6
33
40
5
100
86
117
73
11
96
18
56
91
93
3
113
65
66
31
104
63
70
69
47
68
28
16
21
12
110
115
99
118
60
58
90
36
64
87

> <PUBCHEM_MMFF94_PARTIAL_CHARGES>
42
1 -0.24
10 -0.62
11 -0.62
12 -0.9
13 -0.03
14 0.44
15 -0.04
16 0.14
17 -0.14
18 0.28
19 0.14
2 1.51
20 0.41
21 0.57
22 0.16
23 0.62
24 0.48
25 0.09
26 0.14
27 -0.15
28 -0.15
29 -0.15
3 -0.55
30 -0.15
31 -0.15
4 -0.57
41 0.06
42 0.15
43 0.4
44 0.4
48 0.15
49 0.15
5 -0.57
50 0.15
51 0.15
52 0.15
53 0.5
54 0.5
6 -0.77
7 -0.77
8 -0.7
9 -0.47

> <PUBCHEM_EFFECTIVE_ROTOR_COUNT>
11

> <PUBCHEM_PHARMACOPHORE_FEATURES>
10
1 12 donor
1 4 acceptor
1 6 acceptor
1 7 acceptor
1 8 acceptor
3 10 11 24 cation
3 10 12 20 cation
4 2 6 7 8 anion
6 10 11 17 20 22 24 rings
6 25 27 28 29 30 31 rings

> <PUBCHEM_HEAVY_ATOM_COUNT>
31

> <PUBCHEM_ATOM_DEF_STEREO_COUNT>
0

> <PUBCHEM_ATOM_UDEF_STEREO_COUNT>
0

> <PUBCHEM_BOND_DEF_STEREO_COUNT>
1

> <PUBCHEM_BOND_UDEF_STEREO_COUNT>
0

> <PUBCHEM_ISOTOPIC_ATOM_COUNT>
0

> <PUBCHEM_COMPONENT_COUNT>
1

> <PUBCHEM_CACTVS_TAUTO_COUNT>
3

> <PUBCHEM_CONFORMER_ID>
002E46C300000001

> <PUBCHEM_MMFF94_ENERGY>
68

> <PUBCHEM_FEATURE_SELFOVERLAP>
50.917

> <PUBCHEM_SHAPE_FINGERPRINT>
10119406 146 18127997247321458022
108634 29 17475777128433267895
1100329 8 18266462203391076823
121448 382 18342740706424526437
12712778 12 18193542583747303866
13911987 19 18261117369688528804
14251757 5 18191872434106185318
14787075 74 18060419135904920728
14866123 147 18336547234925229098
16728300 4 17749103370524151914
17349148 13 18271818916889550212
17627616 140 18336257942707145647
19319366 153 18340206293905699175
20600515 1 18270412688624978324
21796203 349 16538810190961907586
3178227 256 18337120063798627939
392239 28 18059860519662919168
484985 159 16246226122510604873
484989 97 18046624788167823151
6287921 2 17835231251785905218
9981440 41 18334578997373074443

> <PUBCHEM_SHAPE_MULTIPOLES>
590.52
8.53
6.71
1.96
7.84
12.32
-0.79
-4.31
2.81
-0.15
-2.24
-0.59
-1.66
-1.08

> <PUBCHEM_SHAPE_SELFOVERLAP>
1207.344

> <PUBCHEM_SHAPE_VOLUME>
342

> <PUBCHEM_COORDINATE_TYPE>
2
5
10

$$$$
