193093
  -OEChem-10241303043D

 34 37  0     0  0  0  0  0  0999 V2000
    1.7113   -1.9006    0.0007 O   0  0  0  0  0  0  0  0  0  0  0  0
   -0.0486   -3.9454   -0.0004 O   0  0  0  0  0  0  0  0  0  0  0  0
   -3.8864    2.6770   -0.0006 O   0  0  0  0  0  0  0  0  0  0  0  0
   -1.4901   -0.0326    0.0001 C   0  0  0  0  0  0  0  0  0  0  0  0
   -0.0945   -0.2655   -0.0004 C   0  0  0  0  0  0  0  0  0  0  0  0
   -1.9623    1.2930    0.0003 C   0  0  0  0  0  0  0  0  0  0  0  0
    0.7851    0.8291   -0.0007 C   0  0  0  0  0  0  0  0  0  0  0  0
   -2.3774   -1.1263    0.0001 C   0  0  0  0  0  0  0  0  0  0  0  0
    0.3809   -1.5859   -0.0007 C   0  0  0  0  0  0  0  0  0  0  0  0
   -1.0753    2.3729    0.0000 C   0  0  0  0  0  0  0  0  0  0  0  0
    0.2970    2.1365   -0.0006 C   0  0  0  0  0  0  0  0  0  0  0  0
   -1.8814   -2.4346    0.0000 C   0  0  0  0  0  0  0  0  0  0  0  0
    2.2349    0.7141   -0.0003 C   0  0  0  0  0  0  0  0  0  0  0  0
   -3.4244    1.5430    0.0007 C   0  0  0  0  0  0  0  0  0  0  0  0
   -0.5070   -2.6613   -0.0004 C   0  0  0  0  0  0  0  0  0  0  0  0
   -3.8221   -0.8823    0.0004 C   0  0  0  0  0  0  0  0  0  0  0  0
   -4.3198    0.3593    0.0005 C   0  0  0  0  0  0  0  0  0  0  0  0
    2.9224    0.6592    1.2080 C   0  0  0  0  0  0  0  0  0  0  0  0
    2.9231    0.6595   -1.2080 C   0  0  0  0  0  0  0  0  0  0  0  0
    4.3129    0.5486    1.2083 C   0  0  0  0  0  0  0  0  0  0  0  0
    4.3135    0.5489   -1.2076 C   0  0  0  0  0  0  0  0  0  0  0  0
    5.0083    0.4935    0.0006 C   0  0  0  0  0  0  0  0  0  0  0  0
   -1.4333    3.3986    0.0001 H   0  0  0  0  0  0  0  0  0  0  0  0
    0.9710    2.9911   -0.0006 H   0  0  0  0  0  0  0  0  0  0  0  0
   -2.5630   -3.2826    0.0001 H   0  0  0  0  0  0  0  0  0  0  0  0
   -4.4907   -1.7369    0.0003 H   0  0  0  0  0  0  0  0  0  0  0  0
   -5.3896    0.5352    0.0007 H   0  0  0  0  0  0  0  0  0  0  0  0
    2.3945    0.6999    2.1576 H   0  0  0  0  0  0  0  0  0  0  0  0
    2.3958    0.7005   -2.1580 H   0  0  0  0  0  0  0  0  0  0  0  0
    1.8479   -2.7258   -0.4939 H   0  0  0  0  0  0  0  0  0  0  0  0
    4.8539    0.5049    2.1490 H   0  0  0  0  0  0  0  0  0  0  0  0
    4.8552    0.5054   -2.1479 H   0  0  0  0  0  0  0  0  0  0  0  0
    0.8516   -3.9664    0.3638 H   0  0  0  0  0  0  0  0  0  0  0  0
    6.0910    0.4070    0.0009 H   0  0  0  0  0  0  0  0  0  0  0  0
  1  9  1  0  0  0  0
  1 30  1  0  0  0  0
  2 15  1  0  0  0  0
  2 33  1  0  0  0  0
  3 14  2  0  0  0  0
  4  5  1  0  0  0  0
  4  6  2  0  0  0  0
  4  8  1  0  0  0  0
  5  7  2  0  0  0  0
  5  9  1  0  0  0  0
  6 10  1  0  0  0  0
  6 14  1  0  0  0  0
  7 11  1  0  0  0  0
  7 13  1  0  0  0  0
  8 12  2  0  0  0  0
  8 16  1  0  0  0  0
  9 15  2  0  0  0  0
 10 11  2  0  0  0  0
 10 23  1  0  0  0  0
 11 24  1  0  0  0  0
 12 15  1  0  0  0  0
 12 25  1  0  0  0  0
 13 18  2  0  0  0  0
 13 19  1  0  0  0  0
 14 17  1  0  0  0  0
 16 17  2  0  0  0  0
 16 26  1  0  0  0  0
 17 27  1  0  0  0  0
 18 20  1  0  0  0  0
 18 28  1  0  0  0  0
 19 21  2  0  0  0  0
 19 29  1  0  0  0  0
 20 22  2  0  0  0  0
 20 31  1  0  0  0  0
 21 22  1  0  0  0  0
 21 32  1  0  0  0  0
 22 34  1  0  0  0  0
M  END
> <PUBCHEM_COMPOUND_CID>
193093

> <PUBCHEM_CONFORMER_RMSD>
0.6

> <PUBCHEM_CONFORMER_DIVERSEORDER>
1

> <PUBCHEM_MMFF94_PARTIAL_CHARGES>
30
1 -0.53
10 -0.15
11 -0.15
12 -0.15
14 0.47
15 0.08
16 -0.18
17 -0.14
18 -0.15
19 -0.15
2 -0.53
20 -0.15
21 -0.15
22 -0.15
23 0.15
24 0.15
25 0.15
26 0.15
27 0.15
28 0.15
29 0.15
3 -0.57
30 0.45
31 0.15
32 0.15
33 0.45
34 0.15
6 0.09
8 0.03
9 0.08

> <PUBCHEM_EFFECTIVE_ROTOR_COUNT>
1

> <PUBCHEM_PHARMACOPHORE_FEATURES>
7
1 1 donor
1 2 donor
1 3 acceptor
6 13 18 19 20 21 22 rings
6 4 5 6 7 10 11 rings
6 4 5 8 9 12 15 rings
6 4 6 8 14 16 17 rings

> <PUBCHEM_HEAVY_ATOM_COUNT>
22

> <PUBCHEM_ATOM_DEF_STEREO_COUNT>
0

> <PUBCHEM_ATOM_UDEF_STEREO_COUNT>
0

> <PUBCHEM_BOND_DEF_STEREO_COUNT>
0

> <PUBCHEM_BOND_UDEF_STEREO_COUNT>
0

> <PUBCHEM_ISOTOPIC_ATOM_COUNT>
0

> <PUBCHEM_COMPONENT_COUNT>
1

> <PUBCHEM_CACTVS_TAUTO_COUNT>
19

> <PUBCHEM_CONFORMER_ID>
0002F24500000001

> <PUBCHEM_MMFF94_ENERGY>
81.3339

> <PUBCHEM_FEATURE_SELFOVERLAP>
35.603

> <PUBCHEM_SHAPE_FINGERPRINT>
10062212 137 18260543458904285610
10319926 262 18198601403014698216
10411042 1 17617941773780356710
10616163 171 18408606980371812139
10759866 29 18040157323006405274
10967382 1 18338516335769617223
1100329 8 18194965364783750499
11132069 177 18411981377257292528
11578080 2 16519619405162710046
11963148 33 18261953063578720275
12011746 2 18410851084094596605
12236239 1 17749106712615089320
12390115 104 18200327528226450737
12403814 3 17458058266195980277
12553582 1 17977389657046075438
12592029 89 18335708230158779483
12788726 201 17827649367640838426
12839892 36 18264753398864836282
13140716 1 17977948213342600051
13544592 145 18202291290548062524
13583140 156 14333141813506821678
138480 1 17474107601135047879
13862211 1 18338793541570317943
14790565 3 18338249222963980805
15042514 8 18192998346966897867
15196674 1 18338798918362515623
15209289 33 18342458175028259601
15536298 74 18270400481947653574
16752209 62 18337386136183805978
16945 1 18338517576783174119
17804303 29 18340769367764344816
1813 80 16951677001404008570
19591789 44 18411422769621503911
20028762 73 17985550189899319207
20510252 161 18272371979200183872
20691752 17 17604438370730890183
20739085 24 17832171341080454265
20905425 154 18270121184450731974
21267235 1 18337399330465803043
21279426 13 18270123383964552598
22182313 1 18268730371288450839
23184049 29 17762052537975775694
2334 1 18410575050720175879
23366157 5 17826236194161032267
23402539 116 18342730857879718676
23557571 272 18200316658012312432
23559900 14 18053660283420824886
2748010 2 18338807710551149167
3084891 72 18411982481090339303
3091708 16 9266996797402294115
335352 9 18410855494556589293
34934 24 18340481163185856429
350125 39 18193277386696404438
352729 6 18265623258860287599
43471831 8 18336825290759292915
495365 180 17275096233231595874
5104073 3 18337956662881447001
5265222 85 18269563905098989518
5385378 56 18268156357825835707
58807428 26 18337952294535917595
59755656 215 18411702054043529191
602551 16 18412541050751995440
7364860 26 17981040817123096207
77492 1 17676201416433884832
9709674 26 18272094945815444382
9862522 239 18042106696634643077
9981440 41 18335139765509834171

> <PUBCHEM_SHAPE_MULTIPOLES>
435.14
8.17
3.14
0.88
4.44
2.09
0
-3
0
-2.49
0
1.01
-0.13
0

> <PUBCHEM_SHAPE_SELFOVERLAP>
1000.806

> <PUBCHEM_SHAPE_VOLUME>
224.4

> <PUBCHEM_COORDINATE_TYPE>
2
5
10

$$$$
