152967
  -OEChem-10241303053D

 52 51  0     1  0  0  0  0  0999 V2000
   -5.5820    2.9237    0.3285 O   0  0  0  0  0  0  0  0  0  0  0  0
    4.7971    0.5179    0.0110 O   0  0  0  0  0  0  0  0  0  0  0  0
   -5.2140    1.3802    1.9629 O   0  0  0  0  0  0  0  0  0  0  0  0
    6.0269    1.2556    0.2374 O   0  0  0  0  0  0  0  0  0  0  0  0
   -2.2597   -2.2908   -0.2491 C   0  0  0  0  0  0  0  0  0  0  0  0
   -1.4352   -3.0130   -1.3169 C   0  0  0  0  0  0  0  0  0  0  0  0
   -2.8410   -0.9826   -0.7911 C   0  0  0  0  0  0  0  0  0  0  0  0
   -0.8003   -4.3172   -0.8194 C   0  0  0  0  0  0  0  0  0  0  0  0
   -3.6403   -0.2422    0.2851 C   0  0  0  0  0  0  0  0  0  0  0  0
    0.1501   -4.1727    0.3743 C   0  0  0  0  0  0  0  0  0  0  0  0
   -4.2056    1.0828   -0.2177 C   0  0  0  0  0  0  0  0  0  0  0  0
    1.2862   -3.2266    0.1095 C   0  0  0  0  0  0  0  0  0  0  0  0
   -5.0415    1.7822    0.8211 C   0  0  0  0  0  0  0  0  0  0  0  0
    1.5112   -2.1180    0.8304 C   0  0  0  0  0  0  0  0  0  0  0  0
    3.9361    0.8994    1.0822 C   0  0  1  0  0  0  0  0  0  0  0  0
    3.3572    2.2876    0.7751 C   0  0  0  0  0  0  0  0  0  0  0  0
    2.6039   -1.2093    0.5648 C   0  0  0  0  0  0  0  0  0  0  0  0
    2.8244   -0.1011    1.2896 C   0  0  0  0  0  0  0  0  0  0  0  0
    2.4595    2.2626   -0.4337 C   0  0  0  0  0  0  0  0  0  0  0  0
    1.1509    2.5562   -0.3928 C   0  0  0  0  0  0  0  0  0  0  0  0
    0.1808    2.5519   -1.5422 C   0  0  0  0  0  0  0  0  0  0  0  0
    0.7352    2.1736   -2.9092 C   0  0  0  0  0  0  0  0  0  0  0  0
   -1.6390   -2.0613    0.6231 H   0  0  0  0  0  0  0  0  0  0  0  0
   -3.0709   -2.9444    0.0929 H   0  0  0  0  0  0  0  0  0  0  0  0
   -2.0827   -3.2490   -2.1708 H   0  0  0  0  0  0  0  0  0  0  0  0
   -0.6554   -2.3434   -1.6990 H   0  0  0  0  0  0  0  0  0  0  0  0
   -3.4889   -1.1939   -1.6503 H   0  0  0  0  0  0  0  0  0  0  0  0
   -2.0278   -0.3394   -1.1484 H   0  0  0  0  0  0  0  0  0  0  0  0
   -1.5968   -5.0208   -0.5466 H   0  0  0  0  0  0  0  0  0  0  0  0
   -0.2579   -4.7763   -1.6560 H   0  0  0  0  0  0  0  0  0  0  0  0
   -2.9987   -0.0563    1.1559 H   0  0  0  0  0  0  0  0  0  0  0  0
   -4.4599   -0.8835    0.6335 H   0  0  0  0  0  0  0  0  0  0  0  0
    0.5755   -5.1581    0.6014 H   0  0  0  0  0  0  0  0  0  0  0  0
   -0.4121   -3.8756    1.2671 H   0  0  0  0  0  0  0  0  0  0  0  0
   -3.3854    1.7507   -0.5032 H   0  0  0  0  0  0  0  0  0  0  0  0
   -4.8373    0.9019   -1.0947 H   0  0  0  0  0  0  0  0  0  0  0  0
    1.9479   -3.4822   -0.7152 H   0  0  0  0  0  0  0  0  0  0  0  0
    0.8471   -1.8720    1.6551 H   0  0  0  0  0  0  0  0  0  0  0  0
    4.5192    0.9404    2.0116 H   0  0  0  0  0  0  0  0  0  0  0  0
    4.1612    3.0065    0.5796 H   0  0  0  0  0  0  0  0  0  0  0  0
    2.8109    2.6581    1.6520 H   0  0  0  0  0  0  0  0  0  0  0  0
    3.2573   -1.4552   -0.2676 H   0  0  0  0  0  0  0  0  0  0  0  0
    2.1578    0.1205    2.1227 H   0  0  0  0  0  0  0  0  0  0  0  0
    2.9295    1.9994   -1.3769 H   0  0  0  0  0  0  0  0  0  0  0  0
    0.7131    2.8222    0.5677 H   0  0  0  0  0  0  0  0  0  0  0  0
   -6.1285    3.3886    0.9974 H   0  0  0  0  0  0  0  0  0  0  0  0
   -0.2654    3.5511   -1.6121 H   0  0  0  0  0  0  0  0  0  0  0  0
   -0.6335    1.8609   -1.2940 H   0  0  0  0  0  0  0  0  0  0  0  0
    1.1483    1.1594   -2.9041 H   0  0  0  0  0  0  0  0  0  0  0  0
    1.5193    2.8685   -3.2275 H   0  0  0  0  0  0  0  0  0  0  0  0
   -0.0626    2.2047   -3.6585 H   0  0  0  0  0  0  0  0  0  0  0  0
    5.9006    1.8869   -0.4914 H   0  0  0  0  0  0  0  0  0  0  0  0
  1 13  1  0  0  0  0
  1 46  1  0  0  0  0
  2  4  1  0  0  0  0
  2 15  1  0  0  0  0
  3 13  2  0  0  0  0
  4 52  1  0  0  0  0
  5  6  1  0  0  0  0
  5  7  1  0  0  0  0
  5 23  1  0  0  0  0
  5 24  1  0  0  0  0
  6  8  1  0  0  0  0
  6 25  1  0  0  0  0
  6 26  1  0  0  0  0
  7  9  1  0  0  0  0
  7 27  1  0  0  0  0
  7 28  1  0  0  0  0
  8 10  1  0  0  0  0
  8 29  1  0  0  0  0
  8 30  1  0  0  0  0
  9 11  1  0  0  0  0
  9 31  1  0  0  0  0
  9 32  1  0  0  0  0
 10 12  1  0  0  0  0
 10 33  1  0  0  0  0
 10 34  1  0  0  0  0
 11 13  1  0  0  0  0
 11 35  1  0  0  0  0
 11 36  1  0  0  0  0
 12 14  2  0  0  0  0
 12 37  1  0  0  0  0
 14 17  1  0  0  0  0
 14 38  1  0  0  0  0
 15 16  1  0  0  0  0
 15 18  1  0  0  0  0
 15 39  1  0  0  0  0
 16 19  1  0  0  0  0
 16 40  1  0  0  0  0
 16 41  1  0  0  0  0
 17 18  2  0  0  0  0
 17 42  1  0  0  0  0
 18 43  1  0  0  0  0
 19 20  2  0  0  0  0
 19 44  1  0  0  0  0
 20 21  1  0  0  0  0
 20 45  1  0  0  0  0
 21 22  1  0  0  0  0
 21 47  1  0  0  0  0
 21 48  1  0  0  0  0
 22 49  1  0  0  0  0
 22 50  1  0  0  0  0
 22 51  1  0  0  0  0
M  END
> <PUBCHEM_COMPOUND_CID>
152967

> <PUBCHEM_CONFORMER_RMSD>
1

> <PUBCHEM_CONFORMER_DIVERSEORDER>
1
190
205
175
3
158
86
94
67
133
156
99
58
229
167
47
178
140
93
234
101
191
203
26
21
103
31
160
124
116
74
172
147
228
105
96
68
9
144
157
82
119
230
209
91
71
35
111
154
40
62
200
163
55
170
16
224
225
233
187
120
192
153
168
165
148
223
197
14
219
37
193
45
194
117
38
134
131
46
43
63
202
212
142
130
61
125
129
149
155
52
90
196
109
20
50
73
44
75
169
232
39
213
42
110
220
5
226
102
161
64
126
87
217
107
118
174
95
171
166
122
159
6
23
184
183
221
136
29
132
25
139
60
227
54
210
135
79
56
36
80
30
51
108
137
113
24
216
146
214
222
81
84
48
162
179
173
185
176
8
57
49
72
218
208
65
4
215
121
76
10
22
89
69
78
85
186
143
106
114
128
115
231
15
18
207
34
92
41
204
32
88
12
77
195
145
138
112
206
188
70
177
211
151
181
13
53
198
66
28
19
141
100
33
97
150
199
27
7
98
201
189
17
59
152
104
2
164
180
11
127
123
83
182

> <PUBCHEM_MMFF94_PARTIAL_CHARGES>
24
1 -0.65
10 0.14
11 0.06
12 -0.29
13 0.66
14 -0.15
15 0.42
16 0.14
17 -0.15
18 -0.29
19 -0.29
2 -0.28
20 -0.29
21 0.14
3 -0.57
37 0.15
38 0.15
4 -0.4
42 0.15
43 0.15
44 0.15
45 0.15
46 0.5
52 0.4

> <PUBCHEM_EFFECTIVE_ROTOR_COUNT>
14

> <PUBCHEM_PHARMACOPHORE_FEATURES>
4
1 1 acceptor
1 22 hydrophobe
1 3 acceptor
3 1 3 13 anion

> <PUBCHEM_HEAVY_ATOM_COUNT>
22

> <PUBCHEM_ATOM_DEF_STEREO_COUNT>
0

> <PUBCHEM_ATOM_UDEF_STEREO_COUNT>
0

> <PUBCHEM_BOND_DEF_STEREO_COUNT>
0

> <PUBCHEM_BOND_UDEF_STEREO_COUNT>
3

> <PUBCHEM_ISOTOPIC_ATOM_COUNT>
0

> <PUBCHEM_COMPONENT_COUNT>
1

> <PUBCHEM_CACTVS_TAUTO_COUNT>
1

> <PUBCHEM_CONFORMER_ID>
0002558700000001

> <PUBCHEM_MMFF94_ENERGY>
6.5166

> <PUBCHEM_FEATURE_SELFOVERLAP>
20.354

> <PUBCHEM_SHAPE_FINGERPRINT>
10708813 3 18191295177342180030
10937287 8 18342729724330813867
11513181 2 18060416885194268159
12788726 201 17545054053084693799
12978246 48 18265050413307419795
13965767 371 18194093310023399706
14251764 75 18272374144385485985
14363568 33 18051698737133097534
14840074 17 18113618993018905404
20621476 13 17904745701308769709
21585483 110 18192423074709833829
245318 6 18334586754311039661
5895379 119 17905604759525086952
7064713 232 18341035411087013528

> <PUBCHEM_SHAPE_MULTIPOLES>
429.27
10.67
5.85
1.68
4.17
5.34
-0.87
-10.53
5.15
2.15
-1.38
0.32
-1.13
-2.1

> <PUBCHEM_SHAPE_SELFOVERLAP>
808.922

> <PUBCHEM_SHAPE_VOLUME>
264.7

> <PUBCHEM_COORDINATE_TYPE>
2
5
10

$$$$
6440263
  -OEChem-10241303053D

 52 51  0     1  0  0  0  0  0999 V2000
   -5.5820    2.9237    0.3285 O   0  0  0  0  0  0  0  0  0  0  0  0
    4.7971    0.5179    0.0110 O   0  0  0  0  0  0  0  0  0  0  0  0
   -5.2140    1.3802    1.9629 O   0  0  0  0  0  0  0  0  0  0  0  0
    6.0269    1.2556    0.2374 O   0  0  0  0  0  0  0  0  0  0  0  0
   -2.2597   -2.2908   -0.2491 C   0  0  0  0  0  0  0  0  0  0  0  0
   -1.4352   -3.0130   -1.3169 C   0  0  0  0  0  0  0  0  0  0  0  0
   -2.8410   -0.9826   -0.7911 C   0  0  0  0  0  0  0  0  0  0  0  0
   -0.8003   -4.3172   -0.8194 C   0  0  0  0  0  0  0  0  0  0  0  0
   -3.6403   -0.2422    0.2851 C   0  0  0  0  0  0  0  0  0  0  0  0
    0.1501   -4.1727    0.3743 C   0  0  0  0  0  0  0  0  0  0  0  0
   -4.2056    1.0828   -0.2177 C   0  0  0  0  0  0  0  0  0  0  0  0
    1.2862   -3.2266    0.1095 C   0  0  0  0  0  0  0  0  0  0  0  0
   -5.0415    1.7822    0.8211 C   0  0  0  0  0  0  0  0  0  0  0  0
    1.5112   -2.1180    0.8304 C   0  0  0  0  0  0  0  0  0  0  0  0
    3.9361    0.8994    1.0822 C   0  0  1  0  0  0  0  0  0  0  0  0
    3.3572    2.2876    0.7751 C   0  0  0  0  0  0  0  0  0  0  0  0
    2.6039   -1.2093    0.5648 C   0  0  0  0  0  0  0  0  0  0  0  0
    2.8244   -0.1011    1.2896 C   0  0  0  0  0  0  0  0  0  0  0  0
    2.4595    2.2626   -0.4337 C   0  0  0  0  0  0  0  0  0  0  0  0
    1.1509    2.5562   -0.3928 C   0  0  0  0  0  0  0  0  0  0  0  0
    0.1808    2.5519   -1.5422 C   0  0  0  0  0  0  0  0  0  0  0  0
    0.7352    2.1736   -2.9092 C   0  0  0  0  0  0  0  0  0  0  0  0
   -1.6390   -2.0613    0.6231 H   0  0  0  0  0  0  0  0  0  0  0  0
   -3.0709   -2.9444    0.0929 H   0  0  0  0  0  0  0  0  0  0  0  0
   -2.0827   -3.2490   -2.1708 H   0  0  0  0  0  0  0  0  0  0  0  0
   -0.6554   -2.3434   -1.6990 H   0  0  0  0  0  0  0  0  0  0  0  0
   -3.4889   -1.1939   -1.6503 H   0  0  0  0  0  0  0  0  0  0  0  0
   -2.0278   -0.3394   -1.1484 H   0  0  0  0  0  0  0  0  0  0  0  0
   -1.5968   -5.0208   -0.5466 H   0  0  0  0  0  0  0  0  0  0  0  0
   -0.2579   -4.7763   -1.6560 H   0  0  0  0  0  0  0  0  0  0  0  0
   -2.9987   -0.0563    1.1559 H   0  0  0  0  0  0  0  0  0  0  0  0
   -4.4599   -0.8835    0.6335 H   0  0  0  0  0  0  0  0  0  0  0  0
    0.5755   -5.1581    0.6014 H   0  0  0  0  0  0  0  0  0  0  0  0
   -0.4121   -3.8756    1.2671 H   0  0  0  0  0  0  0  0  0  0  0  0
   -3.3854    1.7507   -0.5032 H   0  0  0  0  0  0  0  0  0  0  0  0
   -4.8373    0.9019   -1.0947 H   0  0  0  0  0  0  0  0  0  0  0  0
    1.9479   -3.4822   -0.7152 H   0  0  0  0  0  0  0  0  0  0  0  0
    0.8471   -1.8720    1.6551 H   0  0  0  0  0  0  0  0  0  0  0  0
    4.5192    0.9404    2.0116 H   0  0  0  0  0  0  0  0  0  0  0  0
    4.1612    3.0065    0.5796 H   0  0  0  0  0  0  0  0  0  0  0  0
    2.8109    2.6581    1.6520 H   0  0  0  0  0  0  0  0  0  0  0  0
    3.2573   -1.4552   -0.2676 H   0  0  0  0  0  0  0  0  0  0  0  0
    2.1578    0.1205    2.1227 H   0  0  0  0  0  0  0  0  0  0  0  0
    2.9295    1.9994   -1.3769 H   0  0  0  0  0  0  0  0  0  0  0  0
    0.7131    2.8222    0.5677 H   0  0  0  0  0  0  0  0  0  0  0  0
   -6.1285    3.3886    0.9974 H   0  0  0  0  0  0  0  0  0  0  0  0
   -0.2654    3.5511   -1.6121 H   0  0  0  0  0  0  0  0  0  0  0  0
   -0.6335    1.8609   -1.2940 H   0  0  0  0  0  0  0  0  0  0  0  0
    1.1483    1.1594   -2.9041 H   0  0  0  0  0  0  0  0  0  0  0  0
    1.5193    2.8685   -3.2275 H   0  0  0  0  0  0  0  0  0  0  0  0
   -0.0626    2.2047   -3.6585 H   0  0  0  0  0  0  0  0  0  0  0  0
    5.9006    1.8869   -0.4914 H   0  0  0  0  0  0  0  0  0  0  0  0
  1 13  1  0  0  0  0
  1 46  1  0  0  0  0
  2  4  1  0  0  0  0
  2 15  1  0  0  0  0
  3 13  2  0  0  0  0
  4 52  1  0  0  0  0
  5  6  1  0  0  0  0
  5  7  1  0  0  0  0
  5 23  1  0  0  0  0
  5 24  1  0  0  0  0
  6  8  1  0  0  0  0
  6 25  1  0  0  0  0
  6 26  1  0  0  0  0
  7  9  1  0  0  0  0
  7 27  1  0  0  0  0
  7 28  1  0  0  0  0
  8 10  1  0  0  0  0
  8 29  1  0  0  0  0
  8 30  1  0  0  0  0
  9 11  1  0  0  0  0
  9 31  1  0  0  0  0
  9 32  1  0  0  0  0
 10 12  1  0  0  0  0
 10 33  1  0  0  0  0
 10 34  1  0  0  0  0
 11 13  1  0  0  0  0
 11 35  1  0  0  0  0
 11 36  1  0  0  0  0
 12 14  2  0  0  0  0
 12 37  1  0  0  0  0
 14 17  1  0  0  0  0
 14 38  1  0  0  0  0
 15 16  1  0  0  0  0
 15 18  1  0  0  0  0
 15 39  1  0  0  0  0
 16 19  1  0  0  0  0
 16 40  1  0  0  0  0
 16 41  1  0  0  0  0
 17 18  2  0  0  0  0
 17 42  1  0  0  0  0
 18 43  1  0  0  0  0
 19 20  2  0  0  0  0
 19 44  1  0  0  0  0
 20 21  1  0  0  0  0
 20 45  1  0  0  0  0
 21 22  1  0  0  0  0
 21 47  1  0  0  0  0
 21 48  1  0  0  0  0
 22 49  1  0  0  0  0
 22 50  1  0  0  0  0
 22 51  1  0  0  0  0
M  END
> <PUBCHEM_COMPOUND_CID>
6440263

> <PUBCHEM_CONFORMER_RMSD>
1

> <PUBCHEM_CONFORMER_DIVERSEORDER>
1
107
206
80
252
154
47
18
41
237
185
192
83
251
177
111
151
93
3
20
265
225
131
253
255
92
142
21
174
288
175
226
261
59
213
130
231
183
287
139
117
11
57
184
170
250
127
286
120
234
137
220
156
101
284
67
214
281
219
247
195
121
209
89
150
178
243
98
210
133
180
63
104
99
149
272
164
160
275
244
39
245
40
257
81
4
246
28
45
269
64
48
115
224
103
200
155
191
50
23
143
61
222
132
12
267
264
123
88
235
181
27
227
148
55
161
118
49
254
135
147
145
124
239
122
197
169
144
215
248
263
285
66
119
277
217
25
32
189
70
52
85
51
29
94
138
242
105
46
260
38
165
110
205
212
259
9
283
97
187
126
114
146
158
162
15
68
271
86
58
82
176
8
201
91
24
108
240
268
279
163
199
274
221
266
270
74
236
100
153
90
102
26
95
72
53
193
232
173
79
128
73
13
194
216
116
207
109
125
152
203
84
202
188
171
75
204
136
278
238
229
43
129
186
5
233
168
78
282
134
60
54
167
30
230
211
42
182
141
262
65
71
256
280
166
76
2
258
10
190
37
179
113
6
31
112
140
228
276
33
36
44
56
22
17
157
19
106
198
273
289
62
14
77
208
249
96
35
218
34
172
69
241
16
196
223
159
7
87

> <PUBCHEM_MMFF94_PARTIAL_CHARGES>
24
1 -0.65
10 0.14
11 0.06
12 -0.29
13 0.66
14 -0.15
15 0.42
16 0.14
17 -0.15
18 -0.29
19 -0.29
2 -0.28
20 -0.29
21 0.14
3 -0.57
37 0.15
38 0.15
4 -0.4
42 0.15
43 0.15
44 0.15
45 0.15
46 0.5
52 0.4

> <PUBCHEM_EFFECTIVE_ROTOR_COUNT>
14

> <PUBCHEM_PHARMACOPHORE_FEATURES>
4
1 1 acceptor
1 22 hydrophobe
1 3 acceptor
3 1 3 13 anion

> <PUBCHEM_HEAVY_ATOM_COUNT>
22

> <PUBCHEM_ATOM_DEF_STEREO_COUNT>
0

> <PUBCHEM_ATOM_UDEF_STEREO_COUNT>
1

> <PUBCHEM_BOND_DEF_STEREO_COUNT>
3

> <PUBCHEM_BOND_UDEF_STEREO_COUNT>
0

> <PUBCHEM_ISOTOPIC_ATOM_COUNT>
0

> <PUBCHEM_COMPONENT_COUNT>
1

> <PUBCHEM_CACTVS_TAUTO_COUNT>
1

> <PUBCHEM_CONFORMER_ID>
0062454700000001

> <PUBCHEM_MMFF94_ENERGY>
6.5166

> <PUBCHEM_FEATURE_SELFOVERLAP>
20.354

> <PUBCHEM_SHAPE_FINGERPRINT>
10708813 3 18191295177342180030
10937287 8 18342729724330813867
11513181 2 18060416885194268159
12788726 201 17545054053084693799
12978246 48 18265050413307419795
13965767 371 18194093310023399706
14251764 75 18272374144385485985
14363568 33 18051698737133097534
14840074 17 18113618993018905404
20621476 13 17904745701308769709
21585483 110 18192423074709833829
245318 6 18334586754311039661
5895379 119 17905604759525086952
7064713 232 18341035411087013528

> <PUBCHEM_SHAPE_MULTIPOLES>
429.27
10.67
5.85
1.68
4.17
5.34
-0.87
-10.53
5.15
2.15
-1.38
0.32
-1.13
-2.1

> <PUBCHEM_SHAPE_SELFOVERLAP>
808.922

> <PUBCHEM_SHAPE_VOLUME>
264.7

> <PUBCHEM_COORDINATE_TYPE>
2
5
10

$$$$
