11173788
  -OEChem-10241303003D

 28 29  0     0  0  0  0  0  0999 V2000
    0.1155   -1.8134    1.7559 F   0  0  0  0  0  0  0  0  0  0  0  0
    1.2624   -2.8701    0.2576 F   0  0  0  0  0  0  0  0  0  0  0  0
   -0.1450   -1.8111   -1.7547 F   0  0  0  0  0  0  0  0  0  0  0  0
   -1.3046   -2.8546   -0.2568 F   0  0  0  0  0  0  0  0  0  0  0  0
    4.0031    2.7478   -0.1424 F   0  0  0  0  0  0  0  0  0  0  0  0
   -3.9671    2.7789    0.1422 F   0  0  0  0  0  0  0  0  0  0  0  0
    0.6006   -1.6827    0.4763 C   0  0  0  0  0  0  0  0  0  0  0  0
   -0.6169   -1.6910   -0.4772 C   0  0  0  0  0  0  0  0  0  0  0  0
    1.5032   -0.5073    0.3121 C   0  0  0  0  0  0  0  0  0  0  0  0
   -1.5174   -0.4894   -0.3106 C   0  0  0  0  0  0  0  0  0  0  0  0
    1.2800    0.6526    1.0540 C   0  0  0  0  0  0  0  0  0  0  0  0
   -1.2767    0.6475   -1.0642 C   0  0  0  0  0  0  0  0  0  0  0  0
    2.5708   -0.5674   -0.5835 C   0  0  0  0  0  0  0  0  0  0  0  0
   -2.5659   -0.5483    0.5925 C   0  0  0  0  0  0  0  0  0  0  0  0
    2.1242    1.7523    0.9003 C   0  0  0  0  0  0  0  0  0  0  0  0
   -2.1079    1.7570   -0.9103 C   0  0  0  0  0  0  0  0  0  0  0  0
    3.4151    0.5323   -0.7373 C   0  0  0  0  0  0  0  0  0  0  0  0
   -3.3972    0.5611    0.7464 C   0  0  0  0  0  0  0  0  0  0  0  0
    3.1917    1.6921    0.0047 C   0  0  0  0  0  0  0  0  0  0  0  0
   -3.1682    1.7138   -0.0050 C   0  0  0  0  0  0  0  0  0  0  0  0
    0.4573    0.7135    1.7615 H   0  0  0  0  0  0  0  0  0  0  0  0
   -0.4588    0.6924   -1.7774 H   0  0  0  0  0  0  0  0  0  0  0  0
    2.7548   -1.4628   -1.1711 H   0  0  0  0  0  0  0  0  0  0  0  0
   -2.7512   -1.4389    1.1857 H   0  0  0  0  0  0  0  0  0  0  0  0
    1.9514    2.6549    1.4789 H   0  0  0  0  0  0  0  0  0  0  0  0
   -1.9306    2.6541   -1.4960 H   0  0  0  0  0  0  0  0  0  0  0  0
    4.2459    0.4861   -1.4352 H   0  0  0  0  0  0  0  0  0  0  0  0
   -4.2222    0.5282    1.4517 H   0  0  0  0  0  0  0  0  0  0  0  0
  1  7  1  0  0  0  0
  2  7  1  0  0  0  0
  3  8  1  0  0  0  0
  4  8  1  0  0  0  0
  5 19  1  0  0  0  0
  6 20  1  0  0  0  0
  7  8  1  0  0  0  0
  7  9  1  0  0  0  0
  8 10  1  0  0  0  0
  9 11  2  0  0  0  0
  9 13  1  0  0  0  0
 10 12  2  0  0  0  0
 10 14  1  0  0  0  0
 11 15  1  0  0  0  0
 11 21  1  0  0  0  0
 12 16  1  0  0  0  0
 12 22  1  0  0  0  0
 13 17  2  0  0  0  0
 13 23  1  0  0  0  0
 14 18  2  0  0  0  0
 14 24  1  0  0  0  0
 15 19  2  0  0  0  0
 15 25  1  0  0  0  0
 16 20  2  0  0  0  0
 16 26  1  0  0  0  0
 17 19  1  0  0  0  0
 17 27  1  0  0  0  0
 18 20  1  0  0  0  0
 18 28  1  0  0  0  0
M  END
> <PUBCHEM_COMPOUND_CID>
11173788

> <PUBCHEM_CONFORMER_RMSD>
0.6

> <PUBCHEM_CONFORMER_DIVERSEORDER>
1
3
2
4
5
7
6

> <PUBCHEM_MMFF94_PARTIAL_CHARGES>
28
1 -0.34
10 -0.14
11 -0.15
12 -0.15
13 -0.15
14 -0.15
15 -0.15
16 -0.15
17 -0.15
18 -0.15
19 0.19
2 -0.34
20 0.19
21 0.15
22 0.15
23 0.15
24 0.15
25 0.15
26 0.15
27 0.15
28 0.15
3 -0.34
4 -0.34
5 -0.19
6 -0.19
7 0.82
8 0.82
9 -0.14

> <PUBCHEM_EFFECTIVE_ROTOR_COUNT>
3

> <PUBCHEM_PHARMACOPHORE_FEATURES>
2
6 10 12 14 16 18 20 rings
6 9 11 13 15 17 19 rings

> <PUBCHEM_HEAVY_ATOM_COUNT>
20

> <PUBCHEM_ATOM_DEF_STEREO_COUNT>
0

> <PUBCHEM_ATOM_UDEF_STEREO_COUNT>
0

> <PUBCHEM_BOND_DEF_STEREO_COUNT>
0

> <PUBCHEM_BOND_UDEF_STEREO_COUNT>
0

> <PUBCHEM_ISOTOPIC_ATOM_COUNT>
0

> <PUBCHEM_COMPONENT_COUNT>
1

> <PUBCHEM_CACTVS_TAUTO_COUNT>
1

> <PUBCHEM_CONFORMER_ID>
00AA7F9C00000001

> <PUBCHEM_MMFF94_ENERGY>
36.6368

> <PUBCHEM_FEATURE_SELFOVERLAP>
10.149

> <PUBCHEM_SHAPE_FINGERPRINT>
10165383 225 18338249201214389541
10498660 4 18335412504507175189
10948715 1 18410860957686320165
12173636 292 18339360897748390876
12633257 1 17898004625636666801
128993 33 18410569591410944040
13134695 92 17469579842158213247
13764800 53 17896322608789685170
14123255 52 18410855460133943237
14142880 1 18190168173634244557
14386348 128 18410571790428820900
14787075 74 17463132688668233283
14955137 171 18119521034330410018
15775835 57 18410858758663162052
15848702 68 17683230370615745213
16945 1 18410847763547163618
17134986 127 18411415068655283156
17834072 14 9295288300699010976
18186145 218 18201731643118724904
18981168 100 18339058454640997075
20510252 161 18123470745872994250
20671657 1 18337947866350736402
21041028 32 17616528459045878858
21501502 16 18267295611925266810
21524375 3 18410568487598879338
22094290 62 18338791222155739098
23175994 123 17690283707516647623
23402539 116 17763451121357069670
23419403 2 17406895786557998774
23557571 272 17760931040790375686
238 59 17831264278246758941
25 1 18411140191011985608
2637199 183 18271253720050560533
31174 14 17827919521183496101
350125 39 18410008840507178123
430814 3 18409442579107117035
474 4 18124873461387548361
5939293 188 17760920745268502797
6442390 28 18335997457467310099
7364860 26 18120936100998872591
7808743 9 18265336286246953336
81228 2 17831571342443075874

> <PUBCHEM_SHAPE_MULTIPOLES>
367.95
6
3.09
1.17
0.12
0.46
0
-5.47
0
-0.03
0
-0.01
0.23
0.12

> <PUBCHEM_SHAPE_SELFOVERLAP>
807.461

> <PUBCHEM_SHAPE_VOLUME>
198.7

> <PUBCHEM_COORDINATE_TYPE>
2
5
10

$$$$
