46942142
  -OEChem-10241303103D

 34 36  0     0  0  0  0  0  0999 V2000
    0.1473    1.6358    0.0696 N   0  0  0  0  0  0  0  0  0  0  0  0
    5.0639   -2.2482    0.7430 N   0  0  0  0  0  0  0  0  0  0  0  0
   -0.5847    0.8696   -0.7972 C   0  0  0  0  0  0  0  0  0  0  0  0
    1.5012    0.0124   -0.6436 C   0  0  0  0  0  0  0  0  0  0  0  0
    1.4250    1.1358    0.1825 C   0  0  0  0  0  0  0  0  0  0  0  0
   -1.9925    1.1878   -1.0998 C   0  0  0  0  0  0  0  0  0  0  0  0
    0.2260   -0.1430   -1.2557 C   0  0  0  0  0  0  0  0  0  0  0  0
    2.7166   -0.6970   -0.7135 C   0  0  0  0  0  0  0  0  0  0  0  0
    3.8083   -0.2572    0.0438 C   0  0  0  0  0  0  0  0  0  0  0  0
    2.5081    1.5873    0.9449 C   0  0  0  0  0  0  0  0  0  0  0  0
   -3.0072    0.3114   -0.3788 C   0  0  0  0  0  0  0  0  0  0  0  0
    3.7036    0.8679    0.8593 C   0  0  0  0  0  0  0  0  0  0  0  0
    5.0995   -1.0032   -0.0251 C   0  0  0  0  0  0  0  0  0  0  0  0
   -3.2900   -0.9675   -0.8583 C   0  0  0  0  0  0  0  0  0  0  0  0
   -3.6541    0.7876    0.7615 C   0  0  0  0  0  0  0  0  0  0  0  0
   -4.2200   -1.7704   -0.1976 C   0  0  0  0  0  0  0  0  0  0  0  0
   -4.5840   -0.0151    1.4223 C   0  0  0  0  0  0  0  0  0  0  0  0
   -4.8669   -1.2941    0.9427 C   0  0  0  0  0  0  0  0  0  0  0  0
   -2.2046    2.2420   -0.8758 H   0  0  0  0  0  0  0  0  0  0  0  0
   -2.1641    1.0932   -2.1808 H   0  0  0  0  0  0  0  0  0  0  0  0
   -0.0633   -0.9141   -1.9571 H   0  0  0  0  0  0  0  0  0  0  0  0
   -0.1967    2.4505    0.5592 H   0  0  0  0  0  0  0  0  0  0  0  0
    2.7991   -1.5735   -1.3506 H   0  0  0  0  0  0  0  0  0  0  0  0
    2.4272    2.4626    1.5806 H   0  0  0  0  0  0  0  0  0  0  0  0
    4.5552    1.2039    1.4467 H   0  0  0  0  0  0  0  0  0  0  0  0
    5.3434   -1.2247   -1.0713 H   0  0  0  0  0  0  0  0  0  0  0  0
    5.9210   -0.3826    0.3517 H   0  0  0  0  0  0  0  0  0  0  0  0
   -2.7954   -1.3494   -1.7474 H   0  0  0  0  0  0  0  0  0  0  0  0
   -3.4411    1.7812    1.1467 H   0  0  0  0  0  0  0  0  0  0  0  0
   -4.4407   -2.7660   -0.5713 H   0  0  0  0  0  0  0  0  0  0  0  0
   -5.0874    0.3553    2.3105 H   0  0  0  0  0  0  0  0  0  0  0  0
   -5.5909   -1.9191    1.4572 H   0  0  0  0  0  0  0  0  0  0  0  0
    4.3886   -2.8883    0.3263 H   0  0  0  0  0  0  0  0  0  0  0  0
    5.9692   -2.7113    0.6707 H   0  0  0  0  0  0  0  0  0  0  0  0
  1  3  1  0  0  0  0
  1  5  1  0  0  0  0
  1 22  1  0  0  0  0
  2 13  1  0  0  0  0
  2 33  1  0  0  0  0
  2 34  1  0  0  0  0
  3  6  1  0  0  0  0
  3  7  2  0  0  0  0
  4  5  2  0  0  0  0
  4  7  1  0  0  0  0
  4  8  1  0  0  0  0
  5 10  1  0  0  0  0
  6 11  1  0  0  0  0
  6 19  1  0  0  0  0
  6 20  1  0  0  0  0
  7 21  1  0  0  0  0
  8  9  2  0  0  0  0
  8 23  1  0  0  0  0
  9 12  1  0  0  0  0
  9 13  1  0  0  0  0
 10 12  2  0  0  0  0
 10 24  1  0  0  0  0
 11 14  2  0  0  0  0
 11 15  1  0  0  0  0
 12 25  1  0  0  0  0
 13 26  1  0  0  0  0
 13 27  1  0  0  0  0
 14 16  1  0  0  0  0
 14 28  1  0  0  0  0
 15 17  2  0  0  0  0
 15 29  1  0  0  0  0
 16 18  2  0  0  0  0
 16 30  1  0  0  0  0
 17 18  1  0  0  0  0
 17 31  1  0  0  0  0
 18 32  1  0  0  0  0
M  END
> <PUBCHEM_COMPOUND_CID>
46942142

> <PUBCHEM_CONFORMER_RMSD>
0.6

> <PUBCHEM_CONFORMER_DIVERSEORDER>
1
19
15
7
16
9
13
11
18
17
5
10
20
4
14
8
2
6
12
3

> <PUBCHEM_MMFF94_PARTIAL_CHARGES>
29
1 0.03
10 -0.15
11 -0.14
12 -0.15
13 0.41
14 -0.15
15 -0.15
16 -0.15
17 -0.15
18 -0.15
2 -0.99
21 0.15
22 0.27
23 0.15
24 0.15
25 0.15
28 0.15
29 0.15
3 -0.33
30 0.15
31 0.15
32 0.15
33 0.36
34 0.36
5 -0.15
6 0.32
7 -0.15
8 -0.15
9 -0.14

> <PUBCHEM_EFFECTIVE_ROTOR_COUNT>
3

> <PUBCHEM_PHARMACOPHORE_FEATURES>
7
1 1 cation
1 1 donor
1 2 cation
1 2 donor
5 1 3 4 5 7 rings
6 11 14 15 16 17 18 rings
6 4 5 8 9 10 12 rings

> <PUBCHEM_HEAVY_ATOM_COUNT>
18

> <PUBCHEM_ATOM_DEF_STEREO_COUNT>
0

> <PUBCHEM_ATOM_UDEF_STEREO_COUNT>
0

> <PUBCHEM_BOND_DEF_STEREO_COUNT>
0

> <PUBCHEM_BOND_UDEF_STEREO_COUNT>
0

> <PUBCHEM_ISOTOPIC_ATOM_COUNT>
0

> <PUBCHEM_COMPONENT_COUNT>
1

> <PUBCHEM_CACTVS_TAUTO_COUNT>
1

> <PUBCHEM_CONFORMER_ID>
02CC47BE00000001

> <PUBCHEM_MMFF94_ENERGY>
34.99

> <PUBCHEM_FEATURE_SELFOVERLAP>
35.614

> <PUBCHEM_SHAPE_FINGERPRINT>
10014705 185 11024103252864814765
10074138 170 17407380457202420752
10498660 4 11095898029580789059
11046707 91 17967813851492045845
11370993 144 18059866008693971653
11543360 7 12540692647938131925
11552529 35 17700686526398115735
11796584 16 17825096022626237810
12251169 10 17988928907299398141
12363563 72 17603588573297830989
12403259 118 16558752321602589793
12507557 5 14189568650799320643
12553582 1 16443063907067085537
12596602 18 17489866063903972266
12633257 1 17988929993678392407
12644460 14 18272081747576401896
12670546 177 12540691531035554147
12892183 10 17917148407065694185
13004483 165 16053759979855616935
13103583 49 18201166472582692571
13675066 3 16200434658663821444
13914758 101 18272645724353658117
13955234 65 18337672044326908800
14123255 352 11527944551798148674
1420 369 17967532393563582507
14251757 5 14707792712674526481
14251758 9 15841562838208152940
14252887 29 18334850666976631160
14341114 176 18202290224800308073
14341114 328 17131843113589939083
14528608 73 11530488834995971146
14576447 43 14634871976275938856
15188451 53 18059851822834250847
15209289 33 18334580144050441755
15209294 21 15123502588790843012
15238133 3 16271661030522178313
15527383 91 18273500065297984385
15880784 105 18340488958266493579
17780758 139 18201718410065854635
17870717 6 16225764117124134491
17959699 21 8862953783180180326
1813 80 17821447988478066653
18222031 100 17603863437786882997
18785283 64 18267858574964628576
19050596 39 17775569758023827325
193927 3 17313391144841888233
19784866 34 11167950155824597453
19862831 5 12685081605924949093
200 152 14345790552333406245
20028762 73 17917424393127812991
20281475 54 18335704970051696357
20645477 56 11095880505903146885
20739085 24 18131357431627450512
20871999 31 13262395583725712013
21065198 48 17988646354233167961
21065199 12 17988932188617417369
21065201 7 17822838806310283044
21120745 212 12168384713486749420
21637258 2 17531238427789421930
22393880 68 13912324620143084483
22950370 63 18335707130694552612
231179 274 12175627269302156591
23379529 103 16299820700273115875
23402539 116 16226046652488152228
23402655 69 11746927690038083231
23503953 91 17131832079439088959
23559900 14 18113327609505079092
26918003 58 18202565060068763401
2838139 119 10231747877942323994
2916195 48 11959727174925999623
312423 11 17458357350554623901
312425 54 18412831300172955547
316301 35 18261387879977924242
33382 64 17968662614497682026
3472631 163 11743839149323217699
351380 3 17240488022135961211
42 15 18343868826861011989
5104073 3 18131348626469169026
57096353 35 13623531221271453276
5924683 9 17489300954088305783
59755656 520 17898558779914343133
636775 8 18126011460998674806
7495541 125 18408602565862882628
7970288 3 17749399212562294827

> <PUBCHEM_SHAPE_MULTIPOLES>
360.47
11.55
1.78
1.23
0.37
0.38
-0.04
6.12
-4.22
0.67
-0.27
-0.64
-0.06
0.14

> <PUBCHEM_SHAPE_SELFOVERLAP>
790.413

> <PUBCHEM_SHAPE_VOLUME>
195.2

> <PUBCHEM_COORDINATE_TYPE>
2
5
10

$$$$
