73773
  -OEChem-10241302473D

 60 63  0     0  0  0  0  0  0999 V2000
   -0.2403    0.2152   -1.9763 O   0  0  0  0  0  0  0  0  0  0  0  0
   -1.9679    0.9124   -3.3449 O   0  0  0  0  0  0  0  0  0  0  0  0
   -5.3007    1.3485    0.8695 N   0  0  0  0  0  0  0  0  0  0  0  0
    1.5323   -5.4150    0.4712 N   0  0  0  0  0  0  0  0  0  0  0  0
    4.2601    3.7685    0.5172 N   0  0  0  0  0  0  0  0  0  0  0  0
    0.0386    0.0312   -0.5408 C   0  0  0  0  0  0  0  0  0  0  0  0
   -1.3138    0.3431    0.0294 C   0  0  0  0  0  0  0  0  0  0  0  0
    0.4382   -1.4248   -0.2701 C   0  0  0  0  0  0  0  0  0  0  0  0
    1.1670    1.0298   -0.2581 C   0  0  0  0  0  0  0  0  0  0  0  0
   -2.1886    0.7117   -0.9761 C   0  0  0  0  0  0  0  0  0  0  0  0
   -1.5055    0.6496   -2.2533 C   0  0  0  0  0  0  0  0  0  0  0  0
   -1.7687    0.2838    1.3404 C   0  0  0  0  0  0  0  0  0  0  0  0
   -3.5107    1.0490   -0.7433 C   0  0  0  0  0  0  0  0  0  0  0  0
    0.8418   -1.8148    1.0086 C   0  0  0  0  0  0  0  0  0  0  0  0
    2.3747    0.9382   -0.9532 C   0  0  0  0  0  0  0  0  0  0  0  0
    0.3995   -2.3650   -1.3019 C   0  0  0  0  0  0  0  0  0  0  0  0
    0.9904    2.0344    0.6958 C   0  0  0  0  0  0  0  0  0  0  0  0
   -3.9645    1.0031    0.5739 C   0  0  0  0  0  0  0  0  0  0  0  0
   -3.0994    0.6205    1.6101 C   0  0  0  0  0  0  0  0  0  0  0  0
    1.2054   -3.1389    1.2544 C   0  0  0  0  0  0  0  0  0  0  0  0
    3.4012    1.8468   -0.6956 C   0  0  0  0  0  0  0  0  0  0  0  0
    0.7628   -3.6891   -1.0561 C   0  0  0  0  0  0  0  0  0  0  0  0
    2.0168    2.9430    0.9533 C   0  0  0  0  0  0  0  0  0  0  0  0
    1.1659   -4.0760    0.2220 C   0  0  0  0  0  0  0  0  0  0  0  0
    3.2224    2.8492    0.2577 C   0  0  0  0  0  0  0  0  0  0  0  0
   -5.9822    0.7430    1.9957 C   0  0  0  0  0  0  0  0  0  0  0  0
   -6.0024    2.3231    0.0587 C   0  0  0  0  0  0  0  0  0  0  0  0
    2.5132   -5.7300    1.4907 C   0  0  0  0  0  0  0  0  0  0  0  0
    0.9226   -6.4946   -0.2796 C   0  0  0  0  0  0  0  0  0  0  0  0
    5.1939    4.1357   -0.5287 C   0  0  0  0  0  0  0  0  0  0  0  0
    4.3978    4.3686    1.8294 C   0  0  0  0  0  0  0  0  0  0  0  0
   -1.1164    0.0016    2.1590 H   0  0  0  0  0  0  0  0  0  0  0  0
   -4.1551    1.3199   -1.5722 H   0  0  0  0  0  0  0  0  0  0  0  0
    0.8960   -1.1003    1.8247 H   0  0  0  0  0  0  0  0  0  0  0  0
    2.5323    0.1635   -1.6990 H   0  0  0  0  0  0  0  0  0  0  0  0
    0.0923   -2.1037   -2.3099 H   0  0  0  0  0  0  0  0  0  0  0  0
    0.0733    2.1600    1.2582 H   0  0  0  0  0  0  0  0  0  0  0  0
   -3.4306    0.5895    2.6448 H   0  0  0  0  0  0  0  0  0  0  0  0
    1.5064   -3.4088    2.2626 H   0  0  0  0  0  0  0  0  0  0  0  0
    4.3312    1.7387   -1.2465 H   0  0  0  0  0  0  0  0  0  0  0  0
    0.7319   -4.3919   -1.8839 H   0  0  0  0  0  0  0  0  0  0  0  0
    1.8405    3.7201    1.6917 H   0  0  0  0  0  0  0  0  0  0  0  0
   -7.0694    0.8374    1.8960 H   0  0  0  0  0  0  0  0  0  0  0  0
   -5.6942    1.2315    2.9324 H   0  0  0  0  0  0  0  0  0  0  0  0
   -5.7656   -0.3289    2.0678 H   0  0  0  0  0  0  0  0  0  0  0  0
   -5.3616    3.1781   -0.1849 H   0  0  0  0  0  0  0  0  0  0  0  0
   -6.8742    2.7237    0.5880 H   0  0  0  0  0  0  0  0  0  0  0  0
   -6.3621    1.8683   -0.8702 H   0  0  0  0  0  0  0  0  0  0  0  0
    2.0577   -5.7117    2.4864 H   0  0  0  0  0  0  0  0  0  0  0  0
    3.3554   -5.0291    1.4679 H   0  0  0  0  0  0  0  0  0  0  0  0
    2.9331   -6.7307    1.3388 H   0  0  0  0  0  0  0  0  0  0  0  0
   -0.1551   -6.3387   -0.4031 H   0  0  0  0  0  0  0  0  0  0  0  0
    1.0449   -7.4535    0.2366 H   0  0  0  0  0  0  0  0  0  0  0  0
    1.3865   -6.5910   -1.2669 H   0  0  0  0  0  0  0  0  0  0  0  0
    5.7101    5.0717   -0.2873 H   0  0  0  0  0  0  0  0  0  0  0  0
    4.6827    4.2959   -1.4847 H   0  0  0  0  0  0  0  0  0  0  0  0
    5.9585    3.3621   -0.6555 H   0  0  0  0  0  0  0  0  0  0  0  0
    3.6872    5.1920    1.9561 H   0  0  0  0  0  0  0  0  0  0  0  0
    5.4045    4.7773    1.9730 H   0  0  0  0  0  0  0  0  0  0  0  0
    4.2411    3.6326    2.6260 H   0  0  0  0  0  0  0  0  0  0  0  0
  1  6  1  0  0  0  0
  1 11  1  0  0  0  0
  2 11  2  0  0  0  0
  3 18  1  0  0  0  0
  3 26  1  0  0  0  0
  3 27  1  0  0  0  0
  4 24  1  0  0  0  0
  4 28  1  0  0  0  0
  4 29  1  0  0  0  0
  5 25  1  0  0  0  0
  5 30  1  0  0  0  0
  5 31  1  0  0  0  0
  6  7  1  0  0  0  0
  6  8  1  0  0  0  0
  6  9  1  0  0  0  0
  7 10  2  0  0  0  0
  7 12  1  0  0  0  0
  8 14  2  0  0  0  0
  8 16  1  0  0  0  0
  9 15  2  0  0  0  0
  9 17  1  0  0  0  0
 10 11  1  0  0  0  0
 10 13  1  0  0  0  0
 12 19  2  0  0  0  0
 12 32  1  0  0  0  0
 13 18  2  0  0  0  0
 13 33  1  0  0  0  0
 14 20  1  0  0  0  0
 14 34  1  0  0  0  0
 15 21  1  0  0  0  0
 15 35  1  0  0  0  0
 16 22  2  0  0  0  0
 16 36  1  0  0  0  0
 17 23  2  0  0  0  0
 17 37  1  0  0  0  0
 18 19  1  0  0  0  0
 19 38  1  0  0  0  0
 20 24  2  0  0  0  0
 20 39  1  0  0  0  0
 21 25  2  0  0  0  0
 21 40  1  0  0  0  0
 22 24  1  0  0  0  0
 22 41  1  0  0  0  0
 23 25  1  0  0  0  0
 23 42  1  0  0  0  0
 26 43  1  0  0  0  0
 26 44  1  0  0  0  0
 26 45  1  0  0  0  0
 27 46  1  0  0  0  0
 27 47  1  0  0  0  0
 27 48  1  0  0  0  0
 28 49  1  0  0  0  0
 28 50  1  0  0  0  0
 28 51  1  0  0  0  0
 29 52  1  0  0  0  0
 29 53  1  0  0  0  0
 29 54  1  0  0  0  0
 30 55  1  0  0  0  0
 30 56  1  0  0  0  0
 30 57  1  0  0  0  0
 31 58  1  0  0  0  0
 31 59  1  0  0  0  0
 31 60  1  0  0  0  0
M  END
> <PUBCHEM_COMPOUND_CID>
73773

> <PUBCHEM_CONFORMER_RMSD>
0.8

> <PUBCHEM_CONFORMER_DIVERSEORDER>
1
2
3
4

> <PUBCHEM_MMFF94_PARTIAL_CHARGES>
42
1 -0.43
10 0.09
11 0.63
12 -0.15
13 -0.15
14 -0.15
15 -0.15
16 -0.15
17 -0.15
18 0.1
19 -0.15
2 -0.57
20 -0.15
21 -0.15
22 -0.15
23 -0.15
24 0.1
25 0.1
26 0.37
27 0.37
28 0.37
29 0.37
3 -0.84
30 0.37
31 0.37
32 0.15
33 0.15
34 0.15
35 0.15
36 0.15
37 0.15
38 0.15
39 0.15
4 -0.84
40 0.15
41 0.15
42 0.15
5 -0.84
6 0.71
7 -0.14
8 -0.14
9 -0.14

> <PUBCHEM_EFFECTIVE_ROTOR_COUNT>
5.4

> <PUBCHEM_PHARMACOPHORE_FEATURES>
8
1 2 acceptor
1 3 cation
1 4 cation
1 5 cation
5 1 6 7 10 11 rings
6 7 10 12 13 18 19 rings
6 8 14 16 20 22 24 rings
6 9 15 17 21 23 25 rings

> <PUBCHEM_HEAVY_ATOM_COUNT>
31

> <PUBCHEM_ATOM_DEF_STEREO_COUNT>
0

> <PUBCHEM_ATOM_UDEF_STEREO_COUNT>
0

> <PUBCHEM_BOND_DEF_STEREO_COUNT>
0

> <PUBCHEM_BOND_UDEF_STEREO_COUNT>
0

> <PUBCHEM_ISOTOPIC_ATOM_COUNT>
0

> <PUBCHEM_COMPONENT_COUNT>
1

> <PUBCHEM_CACTVS_TAUTO_COUNT>
1

> <PUBCHEM_CONFORMER_ID>
0001202D00000001

> <PUBCHEM_MMFF94_ENERGY>
140.6899

> <PUBCHEM_FEATURE_SELFOVERLAP>
40.687

> <PUBCHEM_SHAPE_FINGERPRINT>
10074138 170 17763177342671259330
10165383 225 18189074099609294844
10985338 8 16628577795314943545
11763715 3 17403204515849777878
12788726 201 17623271076648671494
13004483 165 16827278650378154986
13140716 1 18410857685121746242
133893 2 18123719042422528935
13540713 4 17412205509657829076
13583140 156 18342185449564874429
13757389 114 17829913257471107172
13955234 65 18339654330256860659
14955137 171 18267585706848878978
15219462 58 17905370340263157673
15230672 131 18263654013009845948
15927050 60 18267872860004476454
16114785 44 17910117141643211818
17980427 23 13466407677047106091
17980427 26 18341610399854975213
1813 80 17624978231696675743
18393751 57 18265052621106012177
19319366 153 18272369784820152473
20101258 96 17332511381619564610
20505436 4 17917719028395306205
20600515 1 17048246926449725761
21033648 29 18268432510795877984
21049683 118 17986939924739465976
21120745 212 17258513141052898262
21344244 78 17699844021734466737
21756936 100 17985545791293502104
21796203 349 17834989406789193003
23419403 2 17824249406940836861
23559900 14 18119810201925408777
23845131 108 18338517564077607571
24180151 214 17911492575545639839
283562 15 18053091015865780743
3380486 145 17476318783485128910
3418910 222 17542793011167077698
3886686 26 17619298460213504408
394222 165 17917436393471190921
4046055 4 17113821786897249734
4058900 60 18340786895579199129
437815 12 17613721414998825063
4408954 64 16464801015761921003
4408954 87 17767149827303163955
463206 1 17682692718716614955
508180 173 17250336090463375321
57527585 103 17261565878899740665
59755656 520 18268711795486466788
6442390 28 18265625457709365797
6679774 75 18187079560358759042
6695519 79 18125468490493383123
6697151 62 17831281815188545301
6786 2 18339086011351966258
7288768 16 18127130990123227408
77188 2 17834398912608322690
81228 2 17541091408671997654
9658208 31 18124053461809659604

> <PUBCHEM_SHAPE_MULTIPOLES>
611.28
9.12
8.45
2
9.79
16.55
-0.85
-15.5
3.82
-13.42
2.8
1.08
-0.38
-0.07

> <PUBCHEM_SHAPE_SELFOVERLAP>
1333.626

> <PUBCHEM_SHAPE_VOLUME>
337.3

> <PUBCHEM_COORDINATE_TYPE>
2
5
10

$$$$
