3050618
  -OEChem-10241302583D

 30 32  0     0  0  0  0  0  0999 V2000
    2.4796    2.8039   -0.1479 O   0  0  0  0  0  0  0  0  0  0  0  0
   -4.2657    2.2599   -0.0540 O   0  0  0  0  0  0  0  0  0  0  0  0
   -3.2482    0.9388    1.4866 O   0  0  0  0  0  0  0  0  0  0  0  0
    0.2328    0.8781   -0.3740 N   0  0  0  0  0  0  0  0  0  0  0  0
    3.8900    0.9961    0.0825 N   0  0  0  0  0  0  0  0  0  0  0  0
    1.6815   -0.7146    0.1741 C   0  0  0  0  0  0  0  0  0  0  0  0
    0.3995   -1.3147    0.0461 C   0  0  0  0  0  0  0  0  0  0  0  0
    2.9986   -1.2962    0.5497 C   0  0  0  0  0  0  0  0  0  0  0  0
    1.5504    0.6336   -0.0983 C   0  0  0  0  0  0  0  0  0  0  0  0
   -0.4905   -0.2935   -0.3008 C   0  0  0  0  0  0  0  0  0  0  0  0
    4.1257   -0.4443   -0.0487 C   0  0  0  0  0  0  0  0  0  0  0  0
   -1.8554   -0.5222   -0.5101 C   0  0  0  0  0  0  0  0  0  0  0  0
    2.6348    1.5876   -0.0679 C   0  0  0  0  0  0  0  0  0  0  0  0
   -0.0978   -2.6249    0.1954 C   0  0  0  0  0  0  0  0  0  0  0  0
   -2.3240   -1.8304   -0.3596 C   0  0  0  0  0  0  0  0  0  0  0  0
   -2.8100    0.5640   -0.8795 C   0  0  0  0  0  0  0  0  0  0  0  0
   -1.4605   -2.8669   -0.0116 C   0  0  0  0  0  0  0  0  0  0  0  0
   -3.4408    1.2458    0.3181 C   0  0  0  0  0  0  0  0  0  0  0  0
    3.0800   -1.2960    1.6435 H   0  0  0  0  0  0  0  0  0  0  0  0
    3.0911   -2.3325    0.2085 H   0  0  0  0  0  0  0  0  0  0  0  0
    5.0841   -0.6764    0.4260 H   0  0  0  0  0  0  0  0  0  0  0  0
    4.2198   -0.6443   -1.1226 H   0  0  0  0  0  0  0  0  0  0  0  0
   -0.1525    1.7843   -0.6013 H   0  0  0  0  0  0  0  0  0  0  0  0
    4.6998    1.6074    0.1210 H   0  0  0  0  0  0  0  0  0  0  0  0
    0.5628   -3.4433    0.4670 H   0  0  0  0  0  0  0  0  0  0  0  0
   -3.3778   -2.0549   -0.5100 H   0  0  0  0  0  0  0  0  0  0  0  0
   -3.6153    0.1573   -1.5030 H   0  0  0  0  0  0  0  0  0  0  0  0
   -2.2955    1.3280   -1.4737 H   0  0  0  0  0  0  0  0  0  0  0  0
   -1.8483   -3.8758    0.1018 H   0  0  0  0  0  0  0  0  0  0  0  0
   -4.6746    2.7011    0.7209 H   0  0  0  0  0  0  0  0  0  0  0  0
  1 13  2  0  0  0  0
  2 18  1  0  0  0  0
  2 30  1  0  0  0  0
  3 18  2  0  0  0  0
  4  9  1  0  0  0  0
  4 10  1  0  0  0  0
  4 23  1  0  0  0  0
  5 11  1  0  0  0  0
  5 13  1  0  0  0  0
  5 24  1  0  0  0  0
  6  7  1  0  0  0  0
  6  8  1  0  0  0  0
  6  9  2  0  0  0  0
  7 10  1  0  0  0  0
  7 14  2  0  0  0  0
  8 11  1  0  0  0  0
  8 19  1  0  0  0  0
  8 20  1  0  0  0  0
  9 13  1  0  0  0  0
 10 12  2  0  0  0  0
 11 21  1  0  0  0  0
 11 22  1  0  0  0  0
 12 15  1  0  0  0  0
 12 16  1  0  0  0  0
 14 17  1  0  0  0  0
 14 25  1  0  0  0  0
 15 17  2  0  0  0  0
 15 26  1  0  0  0  0
 16 18  1  0  0  0  0
 16 27  1  0  0  0  0
 16 28  1  0  0  0  0
 17 29  1  0  0  0  0
M  END
> <PUBCHEM_COMPOUND_CID>
3050618

> <PUBCHEM_CONFORMER_RMSD>
0.6

> <PUBCHEM_CONFORMER_DIVERSEORDER>
1
5
6
3
4
7
2

> <PUBCHEM_MMFF94_PARTIAL_CHARGES>
23
1 -0.57
10 -0.15
11 0.3
12 -0.14
13 0.71
14 -0.15
15 -0.15
16 0.2
17 -0.15
18 0.66
2 -0.65
23 0.27
24 0.37
25 0.15
26 0.15
29 0.15
3 -0.57
30 0.5
4 0.03
5 -0.73
6 -0.18
8 0.18
9 -0.24

> <PUBCHEM_EFFECTIVE_ROTOR_COUNT>
2.6

> <PUBCHEM_PHARMACOPHORE_FEATURES>
10
1 1 acceptor
1 2 acceptor
1 3 acceptor
1 4 cation
1 4 donor
1 5 donor
3 2 3 18 anion
5 4 6 7 9 10 rings
6 5 6 8 9 11 13 rings
6 7 10 12 14 15 17 rings

> <PUBCHEM_HEAVY_ATOM_COUNT>
18

> <PUBCHEM_ATOM_DEF_STEREO_COUNT>
0

> <PUBCHEM_ATOM_UDEF_STEREO_COUNT>
0

> <PUBCHEM_BOND_DEF_STEREO_COUNT>
0

> <PUBCHEM_BOND_UDEF_STEREO_COUNT>
0

> <PUBCHEM_ISOTOPIC_ATOM_COUNT>
0

> <PUBCHEM_COMPONENT_COUNT>
1

> <PUBCHEM_CACTVS_TAUTO_COUNT>
3

> <PUBCHEM_CONFORMER_ID>
002E8C7A00000001

> <PUBCHEM_MMFF94_ENERGY>
29.421

> <PUBCHEM_FEATURE_SELFOVERLAP>
50.986

> <PUBCHEM_SHAPE_FINGERPRINT>
10608611 8 18266171932315861372
10967382 1 18265609892800704174
11725454 13 16735486626834895525
12173636 292 18340200916105471663
12491281 212 18335140946435604626
13140716 1 18408036316815428442
13380535 21 18335424612040802054
13583140 156 17168134642147925897
14123255 52 18339079294260407493
14178342 30 18192415584386557080
14790565 3 18193568778832489628
15309172 13 18334857178067618575
15442244 35 18409725184135149130
16945 1 18264197037386062822
1741750 31 18342174500701135442
18186145 218 18411980247923370068
18219364 16 18261105228111134781
19591789 44 17906455420373128038
20157964 124 18050282562937831621
20510252 161 18123468551392976611
21501502 16 18336823216627588566
21524375 3 18272930497290213151
21731228 192 18409455773647804547
22094290 62 18410290289829694248
22182937 141 18412268367267274147
23184049 59 18261956249799725284
2334 1 18264764539994151470
23419403 2 15220907538222602041
23558518 356 18116995687732812538
23559900 14 18124585634069525016
238 59 17539923405153286989
25 1 18337951186355272550
2748010 2 18263638627355537302
335352 9 18338232653285471782
350125 39 18337394941146435003
474 4 18269273465823970233
5104073 3 18335693992790333200
6992083 37 18114179786845704373
74978 22 18410854395250637518
7832392 63 18410289229278636292
81228 2 17827354693949707747
8272917 22 18052821339190319829
9709674 26 18340206422581053902

> <PUBCHEM_SHAPE_MULTIPOLES>
342.86
6.94
2.91
0.8
0.54
0.44
-0.11
-3.9
-0.56
-0.91
-0.09
-0.46
-0.08
-0.53

> <PUBCHEM_SHAPE_SELFOVERLAP>
758.502

> <PUBCHEM_SHAPE_VOLUME>
183.7

> <PUBCHEM_COORDINATE_TYPE>
2
5
10

$$$$
