91716
  -OEChem-10241302473D

 35 37  0     0  0  0  0  0  0999 V2000
    3.1609    1.9338    0.2420 S   0  0  0  0  0  0  0  0  0  0  0  0
    0.7210    0.8760    0.2100 O   0  0  0  0  0  0  0  0  0  0  0  0
   -1.8032    1.4369    0.2361 O   0  0  0  0  0  0  0  0  0  0  0  0
   -2.6119   -0.7566   -0.0080 N   0  0  0  0  0  0  0  0  0  0  0  0
    2.5188   -0.5513   -0.0116 N   0  0  0  0  0  0  0  0  0  0  0  0
   -3.9980   -0.3373   -0.0436 C   0  0  0  0  0  0  0  0  0  0  0  0
   -1.6087    0.2219    0.1352 C   0  0  0  0  0  0  0  0  0  0  0  0
   -0.1681   -0.2561    0.1150 C   0  0  0  0  0  0  0  0  0  0  0  0
    4.4446    0.7954    0.0704 C   0  0  0  0  0  0  0  0  0  0  0  0
    3.9039   -0.4880   -0.0533 C   0  0  0  0  0  0  0  0  0  0  0  0
   -2.3002   -2.1893   -0.1225 C   0  0  0  0  0  0  0  0  0  0  0  0
   -4.2833    0.9010   -0.5528 C   0  0  0  0  0  0  0  0  0  0  0  0
   -4.9452   -1.2025    0.4342 C   0  0  0  0  0  0  0  0  0  0  0  0
    2.0278    0.6566    0.1399 C   0  0  0  0  0  0  0  0  0  0  0  0
    5.8302    1.0218    0.0470 C   0  0  0  0  0  0  0  0  0  0  0  0
    4.7834   -1.5818   -0.2057 C   0  0  0  0  0  0  0  0  0  0  0  0
   -5.6180    1.3048   -0.5869 C   0  0  0  0  0  0  0  0  0  0  0  0
   -6.2799   -0.7987    0.4000 C   0  0  0  0  0  0  0  0  0  0  0  0
    6.6783   -0.0779   -0.1049 C   0  0  0  0  0  0  0  0  0  0  0  0
    6.1639   -1.3637   -0.2298 C   0  0  0  0  0  0  0  0  0  0  0  0
   -6.6163    0.4550   -0.1106 C   0  0  0  0  0  0  0  0  0  0  0  0
    0.0023   -0.9269    0.9640 H   0  0  0  0  0  0  0  0  0  0  0  0
    0.0228   -0.7609   -0.8381 H   0  0  0  0  0  0  0  0  0  0  0  0
   -3.0070   -2.6761   -0.8021 H   0  0  0  0  0  0  0  0  0  0  0  0
   -2.3600   -2.6379    0.8738 H   0  0  0  0  0  0  0  0  0  0  0  0
   -1.2993   -2.3650   -0.5178 H   0  0  0  0  0  0  0  0  0  0  0  0
   -3.5701    1.5625   -1.0277 H   0  0  0  0  0  0  0  0  0  0  0  0
   -4.7110   -2.1749    0.8533 H   0  0  0  0  0  0  0  0  0  0  0  0
    6.2390    2.0229    0.1440 H   0  0  0  0  0  0  0  0  0  0  0  0
    4.3923   -2.5904   -0.3041 H   0  0  0  0  0  0  0  0  0  0  0  0
   -5.8834    2.2716   -1.0051 H   0  0  0  0  0  0  0  0  0  0  0  0
   -7.0571   -1.4589    0.7737 H   0  0  0  0  0  0  0  0  0  0  0  0
    7.7542    0.0754   -0.1254 H   0  0  0  0  0  0  0  0  0  0  0  0
    6.8390   -2.2069   -0.3472 H   0  0  0  0  0  0  0  0  0  0  0  0
   -7.6560    0.7677   -0.1413 H   0  0  0  0  0  0  0  0  0  0  0  0
  1  9  1  0  0  0  0
  1 14  1  0  0  0  0
  2  8  1  0  0  0  0
  2 14  1  0  0  0  0
  3  7  2  0  0  0  0
  4  6  1  0  0  0  0
  4  7  1  0  0  0  0
  4 11  1  0  0  0  0
  5 10  1  0  0  0  0
  5 14  2  0  0  0  0
  6 12  2  0  0  0  0
  6 13  1  0  0  0  0
  7  8  1  0  0  0  0
  8 22  1  0  0  0  0
  8 23  1  0  0  0  0
  9 10  1  0  0  0  0
  9 15  2  0  0  0  0
 10 16  2  0  0  0  0
 11 24  1  0  0  0  0
 11 25  1  0  0  0  0
 11 26  1  0  0  0  0
 12 17  1  0  0  0  0
 12 27  1  0  0  0  0
 13 18  2  0  0  0  0
 13 28  1  0  0  0  0
 15 19  1  0  0  0  0
 15 29  1  0  0  0  0
 16 20  1  0  0  0  0
 16 30  1  0  0  0  0
 17 21  2  0  0  0  0
 17 31  1  0  0  0  0
 18 21  1  0  0  0  0
 18 32  1  0  0  0  0
 19 20  2  0  0  0  0
 19 33  1  0  0  0  0
 20 34  1  0  0  0  0
 21 35  1  0  0  0  0
M  END
> <PUBCHEM_COMPOUND_CID>
91716

> <PUBCHEM_CONFORMER_RMSD>
0.8

> <PUBCHEM_CONFORMER_DIVERSEORDER>
1
186
183
126
101
36
14
187
178
170
188
38
148
168
196
177
8
120
6
157
200
33
89
3
70
23
97
152
61
167
114
63
176
52
47
82
17
78
199
12
192
44
9
99
76
53
143
113
80
130
67
60
74
46
105
91
149
108
155
194
51
11
163
136
121
65
96
111
139
27
132
37
50
75
146
116
15
160
64
4
22
175
179
129
58
2
66
100
131
73
43
201
197
88
142
112
48
166
72
107
56
79
150
102
144
26
134
21
68
145
103
98
117
20
83
135
19
18
49
141
138
85
173
13
124
154
35
69
109
172
137
162
190
123
122
104
133
184
16
7
153
71
181
159
77
41
165
32
24
86
39
198
195
84
118
185
147
57
189
174
40
45
151
10
106
54
87
55
164
34
119
5
140
191
62
127
93
158
81
94
115
169
171
110
28
25
30
29
193
92
125
182
95
156
42
161
128
90
31
59
180

> <PUBCHEM_MMFF94_PARTIAL_CHARGES>
30
1 -0.08
10 0.23
11 0.3
12 -0.15
13 -0.15
14 0.44
15 -0.15
16 -0.15
17 -0.15
18 -0.15
19 -0.15
2 -0.34
20 -0.15
21 -0.15
27 0.15
28 0.15
29 0.15
3 -0.57
30 0.15
31 0.15
32 0.15
33 0.15
34 0.15
35 0.15
4 -0.48
5 -0.57
6 0.12
7 0.57
8 0.34
9 0.04

> <PUBCHEM_EFFECTIVE_ROTOR_COUNT>
5

> <PUBCHEM_PHARMACOPHORE_FEATURES>
4
1 3 acceptor
5 1 5 9 10 14 rings
6 6 12 13 17 18 21 rings
6 9 10 15 16 19 20 rings

> <PUBCHEM_HEAVY_ATOM_COUNT>
21

> <PUBCHEM_ATOM_DEF_STEREO_COUNT>
0

> <PUBCHEM_ATOM_UDEF_STEREO_COUNT>
0

> <PUBCHEM_BOND_DEF_STEREO_COUNT>
0

> <PUBCHEM_BOND_UDEF_STEREO_COUNT>
0

> <PUBCHEM_ISOTOPIC_ATOM_COUNT>
0

> <PUBCHEM_COMPONENT_COUNT>
1

> <PUBCHEM_CACTVS_TAUTO_COUNT>
1

> <PUBCHEM_CONFORMER_ID>
0001664400000001

> <PUBCHEM_MMFF94_ENERGY>
67.9661

> <PUBCHEM_FEATURE_SELFOVERLAP>
20.369

> <PUBCHEM_SHAPE_FINGERPRINT>
10638233 991 15068631491039928470
10835480 77 18341325695200403904
11315181 36 17989491839735307833
11524674 6 17132114658618430679
11719270 70 18271803498120409662
12091667 2 18113900468564840755
12107183 9 17692255132170647074
12166972 35 18334298690359176693
12236239 1 18040152924421875928
12516196 113 18060136548494335208
12616971 3 17561358517365123733
13402501 40 18411138026100678678
13533116 47 17275107189609064430
13668630 136 17346602979974663558
13685833 64 18409733966879006938
14170010 4 18413105083206259656
1420 363 18410858762963287178
14251752 14 18335136470937114385
14251764 18 18202284723490410191
14251764 46 18113898264618948301
14341114 176 18412829096907284564
14933364 13 18334577944963733133
15183329 4 18410292480141618225
17844677 252 18408610266191027333
17857418 61 18343582941111130866
19489759 90 17676488346140322297
200 152 18060700589105523632
20281389 69 18333447646936779693
21150785 3 16370731447658644062
21236236 1 18130228155976611809
21267235 1 18410862061498216056
21279426 13 18338516309751913479
21623969 137 18131357405340552462
220451 1 17704353294465138598
221357 26 18410854343954097272
22224240 67 15554440795984782678
23035841 295 18187081750031800201
23198884 109 16225767406683857377
23402539 116 18272646862008327757
23536379 177 18335138682882266633
23559900 14 18342169011728000976
29717793 49 17989210330894808780
300161 21 18343578568887171122
3004659 81 18334575733519552546
328311 84 18333737918248917555
335352 9 18412544322899740783
34797466 226 17418381316051804036
3545911 37 18410855477519183468
4073 2 17968662743346759434
4214541 1 18410011048399585741
4325135 7 18334018302973744308
4463277 17 18409166614578832344
465052 167 18201723946943389326
542803 24 14923943448831812084
559249 180 18272366499391756223
59755656 215 18409168779596037430
59755656 520 17095238146513402211

> <PUBCHEM_SHAPE_MULTIPOLES>
414.32
19.7
1.78
0.67
0.94
0.18
-0.01
1.27
-0.92
-0.38
-0.03
0.2
-0.03
0.82

> <PUBCHEM_SHAPE_SELFOVERLAP>
887.241

> <PUBCHEM_SHAPE_VOLUME>
230.8

> <PUBCHEM_COORDINATE_TYPE>
2
5
10

$$$$
