168028
  -OEChem-10241303033D

 30 30  0     1  0  0  0  0  0999 V2000
    2.4710    1.9303   -0.7967 O   0  0  0  0  0  0  0  0  0  0  0  0
   -3.8665   -0.8099   -0.4117 N   0  0  0  0  0  0  0  0  0  0  0  0
   -2.5402   -0.4351    0.0917 C   0  0  1  0  0  0  0  0  0  0  0  0
   -1.4696   -0.9447   -0.8962 C   0  0  0  0  0  0  0  0  0  0  0  0
   -2.4700    1.0908    0.2927 C   0  0  0  0  0  0  0  0  0  0  0  0
   -0.0579   -0.6727   -0.4571 C   0  0  0  0  0  0  0  0  0  0  0  0
   -3.5377    1.6237    1.2413 C   0  0  0  0  0  0  0  0  0  0  0  0
    0.5606    0.5132   -0.8321 C   0  0  0  0  0  0  0  0  0  0  0  0
    0.6116   -1.6111    0.3178 C   0  0  0  0  0  0  0  0  0  0  0  0
    2.5516   -0.1714    0.3531 C   0  0  0  0  0  0  0  0  0  0  0  0
    1.8709    0.7649   -0.4251 C   0  0  0  0  0  0  0  0  0  0  0  0
    1.9220   -1.3595    0.7244 C   0  0  0  0  0  0  0  0  0  0  0  0
    3.9542    0.0812    0.7978 C   0  0  0  0  0  0  0  0  0  0  0  0
   -2.3911   -0.9260    1.0620 H   0  0  0  0  0  0  0  0  0  0  0  0
   -1.6300   -0.4990   -1.8881 H   0  0  0  0  0  0  0  0  0  0  0  0
   -1.5890   -2.0268   -1.0469 H   0  0  0  0  0  0  0  0  0  0  0  0
   -1.5015    1.3646    0.7240 H   0  0  0  0  0  0  0  0  0  0  0  0
   -2.5554    1.6099   -0.6700 H   0  0  0  0  0  0  0  0  0  0  0  0
    0.0379    1.2443   -1.4433 H   0  0  0  0  0  0  0  0  0  0  0  0
   -3.3557    2.6835    1.4490 H   0  0  0  0  0  0  0  0  0  0  0  0
   -4.5405    1.5450    0.8108 H   0  0  0  0  0  0  0  0  0  0  0  0
   -3.5223    1.0862    2.1946 H   0  0  0  0  0  0  0  0  0  0  0  0
    0.1297   -2.5385    0.6145 H   0  0  0  0  0  0  0  0  0  0  0  0
   -4.5727   -0.6232    0.2985 H   0  0  0  0  0  0  0  0  0  0  0  0
   -3.8974   -1.8155   -0.5768 H   0  0  0  0  0  0  0  0  0  0  0  0
    2.4377   -2.0992    1.3308 H   0  0  0  0  0  0  0  0  0  0  0  0
    4.3433   -0.7482    1.3988 H   0  0  0  0  0  0  0  0  0  0  0  0
    4.6188    0.1921   -0.0655 H   0  0  0  0  0  0  0  0  0  0  0  0
    4.0058    0.9809    1.4200 H   0  0  0  0  0  0  0  0  0  0  0  0
    3.3755    1.9827   -0.4507 H   0  0  0  0  0  0  0  0  0  0  0  0
  1 11  1  0  0  0  0
  1 30  1  0  0  0  0
  2  3  1  0  0  0  0
  2 24  1  0  0  0  0
  2 25  1  0  0  0  0
  3  4  1  0  0  0  0
  3  5  1  0  0  0  0
  3 14  1  0  0  0  0
  4  6  1  0  0  0  0
  4 15  1  0  0  0  0
  4 16  1  0  0  0  0
  5  7  1  0  0  0  0
  5 17  1  0  0  0  0
  5 18  1  0  0  0  0
  6  8  2  0  0  0  0
  6  9  1  0  0  0  0
  7 20  1  0  0  0  0
  7 21  1  0  0  0  0
  7 22  1  0  0  0  0
  8 11  1  0  0  0  0
  8 19  1  0  0  0  0
  9 12  2  0  0  0  0
  9 23  1  0  0  0  0
 10 11  2  0  0  0  0
 10 12  1  0  0  0  0
 10 13  1  0  0  0  0
 12 26  1  0  0  0  0
 13 27  1  0  0  0  0
 13 28  1  0  0  0  0
 13 29  1  0  0  0  0
M  END
> <PUBCHEM_COMPOUND_CID>
168028

> <PUBCHEM_CONFORMER_RMSD>
0.6

> <PUBCHEM_CONFORMER_DIVERSEORDER>
1
6
14
15
10
24
18
22
12
7
19
13
25
16
11
23
5
4
8
17
9
20
2
3
21

> <PUBCHEM_MMFF94_PARTIAL_CHARGES>
17
1 -0.53
10 -0.14
11 0.08
12 -0.15
13 0.14
19 0.15
2 -0.99
23 0.15
24 0.36
25 0.36
26 0.15
3 0.27
30 0.45
4 0.14
6 -0.14
8 -0.15
9 -0.15

> <PUBCHEM_EFFECTIVE_ROTOR_COUNT>
3

> <PUBCHEM_PHARMACOPHORE_FEATURES>
5
1 1 donor
1 2 cation
1 2 donor
1 7 hydrophobe
6 6 8 9 10 11 12 rings

> <PUBCHEM_HEAVY_ATOM_COUNT>
13

> <PUBCHEM_ATOM_DEF_STEREO_COUNT>
0

> <PUBCHEM_ATOM_UDEF_STEREO_COUNT>
1

> <PUBCHEM_BOND_DEF_STEREO_COUNT>
0

> <PUBCHEM_BOND_UDEF_STEREO_COUNT>
0

> <PUBCHEM_ISOTOPIC_ATOM_COUNT>
0

> <PUBCHEM_COMPONENT_COUNT>
1

> <PUBCHEM_CACTVS_TAUTO_COUNT>
9

> <PUBCHEM_CONFORMER_ID>
0002905C00000001

> <PUBCHEM_MMFF94_ENERGY>
22.2634

> <PUBCHEM_FEATURE_SELFOVERLAP>
25.371

> <PUBCHEM_SHAPE_FINGERPRINT>
10219947 1 17603581945793937238
10465860 228 18269844124805857458
10980938 120 18334574599268644522
11471102 22 17603587404523199578
12138202 97 14979661230607765220
12162725 195 18410856572793703875
12251169 10 18261959557151351105
12491281 212 18337117859720665314
12644460 14 17241041111319613960
12696612 119 18261396606918322620
12932764 1 17968384437870991255
13764800 53 17417825989437960651
14144814 61 18335697221967669259
15209294 21 18271792524277846064
15775835 57 18201159862591198121
16945 1 18041270011467472310
17844478 74 16805599244363149702
200 152 18338499937779965711
201361 129 18411140212434016322
20233049 118 17703505510949748160
20279233 1 16081085970172502947
20559304 39 18411981381552116924
20711983 171 17917990538403967259
22802520 49 15481572796751125569
23402539 116 17845920923169413703
23419403 2 14810139863962766174
23557571 272 16630524068059876419
2748010 2 17827895362108630846
305870 269 18201157641929848343

> <PUBCHEM_SHAPE_MULTIPOLES>
256.68
6.46
1.71
1.04
2.03
0.29
-0.05
1.69
-1.77
0.26
-0.06
0.04
0.17
-1.19

> <PUBCHEM_SHAPE_SELFOVERLAP>
518.885

> <PUBCHEM_SHAPE_VOLUME>
152.2

> <PUBCHEM_COORDINATE_TYPE>
2
5
10

$$$$
