5492110
  -OEChem-10241303043D

 58 63  0     0  0  0  0  0  0999 V2000
   -3.5684   -0.5128   -0.0735 O   0  0  0  0  0  0  0  0  0  0  0  0
    4.6085    0.5488   -0.6769 O   0  0  0  0  0  0  0  0  0  0  0  0
   -0.9007    3.6322   -1.0233 O   0  0  0  0  0  0  0  0  0  0  0  0
   -7.1620   -3.7644   -0.1647 O   0  0  0  0  0  0  0  0  0  0  0  0
    7.2919   -2.5704    1.8855 O   0  0  0  0  0  0  0  0  0  0  0  0
   -7.5784   -1.1942    0.1591 O   0  0  0  0  0  0  0  0  0  0  0  0
   -2.0945    5.6066    0.5254 O   0  0  0  0  0  0  0  0  0  0  0  0
    4.8828   -1.8324    2.6175 O   0  0  0  0  0  0  0  0  0  0  0  0
   -2.6410   -5.1318   -0.6610 O   0  0  0  0  0  0  0  0  0  0  0  0
    8.9561   -0.6761   -2.1392 O   0  0  0  0  0  0  0  0  0  0  0  0
   -3.8464    1.8553    0.2130 C   0  0  0  0  0  0  0  0  0  0  0  0
   -4.4733    0.5228    0.1040 C   0  0  0  0  0  0  0  0  0  0  0  0
   -5.4107   -2.0953   -0.1113 C   0  0  0  0  0  0  0  0  0  0  0  0
   -4.0520   -1.7921   -0.1807 C   0  0  0  0  0  0  0  0  0  0  0  0
    3.5700    0.4475    0.2363 C   0  0  0  0  0  0  0  0  0  0  0  0
    5.9060   -1.0194    0.6488 C   0  0  0  0  0  0  0  0  0  0  0  0
    2.3972    1.2820   -0.0940 C   0  0  0  0  0  0  0  0  0  0  0  0
    5.7467   -0.1845   -0.4560 C   0  0  0  0  0  0  0  0  0  0  0  0
   -2.6558    2.1234   -0.4627 C   0  0  0  0  0  0  0  0  0  0  0  0
   -2.0833    3.3781   -0.3491 C   0  0  0  0  0  0  0  0  0  0  0  0
   -5.8026    0.3577    0.1929 C   0  0  0  0  0  0  0  0  0  0  0  0
   -6.3728   -1.0005    0.0859 C   0  0  0  0  0  0  0  0  0  0  0  0
    3.6060   -0.3154    1.3404 C   0  0  0  0  0  0  0  0  0  0  0  0
    4.8100   -1.1222    1.6244 C   0  0  0  0  0  0  0  0  0  0  0  0
    0.1793    2.8622   -0.7188 C   0  0  0  0  0  0  0  0  0  0  0  0
   -5.8463   -3.4173   -0.2263 C   0  0  0  0  0  0  0  0  0  0  0  0
   -4.4448    2.8460    0.9915 C   0  0  0  0  0  0  0  0  0  0  0  0
    1.5984    1.8048    0.9259 C   0  0  0  0  0  0  0  0  0  0  0  0
    2.0821    1.5529   -1.4278 C   0  0  0  0  0  0  0  0  0  0  0  0
    7.0882   -1.7425    0.8233 C   0  0  0  0  0  0  0  0  0  0  0  0
   -3.1186   -2.8123   -0.3654 C   0  0  0  0  0  0  0  0  0  0  0  0
   -2.6622    4.3730    0.4184 C   0  0  0  0  0  0  0  0  0  0  0  0
    6.7717   -0.0677   -1.3951 C   0  0  0  0  0  0  0  0  0  0  0  0
    0.4911    2.5937    0.6139 C   0  0  0  0  0  0  0  0  0  0  0  0
    0.9750    2.3420   -1.7396 C   0  0  0  0  0  0  0  0  0  0  0  0
   -3.8525    4.1048    1.0944 C   0  0  0  0  0  0  0  0  0  0  0  0
   -3.5497   -4.1341   -0.4809 C   0  0  0  0  0  0  0  0  0  0  0  0
   -4.9106   -4.4357   -0.4116 C   0  0  0  0  0  0  0  0  0  0  0  0
    7.9539   -0.7885   -1.2245 C   0  0  0  0  0  0  0  0  0  0  0  0
    8.1115   -1.6240   -0.1178 C   0  0  0  0  0  0  0  0  0  0  0  0
   -2.1894    1.3669   -1.0889 H   0  0  0  0  0  0  0  0  0  0  0  0
   -6.5091    1.1698    0.3189 H   0  0  0  0  0  0  0  0  0  0  0  0
    2.7881   -0.4023    2.0460 H   0  0  0  0  0  0  0  0  0  0  0  0
   -5.3596    2.6700    1.5508 H   0  0  0  0  0  0  0  0  0  0  0  0
    1.8228    1.6403    1.9765 H   0  0  0  0  0  0  0  0  0  0  0  0
    2.6796    1.1535   -2.2436 H   0  0  0  0  0  0  0  0  0  0  0  0
   -2.0580   -2.5799   -0.4197 H   0  0  0  0  0  0  0  0  0  0  0  0
    6.6515    0.5826   -2.2580 H   0  0  0  0  0  0  0  0  0  0  0  0
   -0.0966    3.0046    1.4302 H   0  0  0  0  0  0  0  0  0  0  0  0
    0.7355    2.5462   -2.7796 H   0  0  0  0  0  0  0  0  0  0  0  0
   -4.3264    4.8663    1.7081 H   0  0  0  0  0  0  0  0  0  0  0  0
   -5.2389   -5.4686   -0.5022 H   0  0  0  0  0  0  0  0  0  0  0  0
    9.0328   -2.1862    0.0163 H   0  0  0  0  0  0  0  0  0  0  0  0
   -7.2483   -4.7277   -0.2661 H   0  0  0  0  0  0  0  0  0  0  0  0
    6.5167   -2.5742    2.4676 H   0  0  0  0  0  0  0  0  0  0  0  0
   -2.6464    6.1602    1.1041 H   0  0  0  0  0  0  0  0  0  0  0  0
   -3.1117   -5.9809   -0.7205 H   0  0  0  0  0  0  0  0  0  0  0  0
    9.6981   -1.2423   -1.8654 H   0  0  0  0  0  0  0  0  0  0  0  0
  1 12  1  0  0  0  0
  1 14  1  0  0  0  0
  2 15  1  0  0  0  0
  2 18  1  0  0  0  0
  3 20  1  0  0  0  0
  3 25  1  0  0  0  0
  4 26  1  0  0  0  0
  4 54  1  0  0  0  0
  5 30  1  0  0  0  0
  5 55  1  0  0  0  0
  6 22  2  0  0  0  0
  7 32  1  0  0  0  0
  7 56  1  0  0  0  0
  8 24  2  0  0  0  0
  9 37  1  0  0  0  0
  9 57  1  0  0  0  0
 10 39  1  0  0  0  0
 10 58  1  0  0  0  0
 11 12  1  0  0  0  0
 11 19  2  0  0  0  0
 11 27  1  0  0  0  0
 12 21  2  0  0  0  0
 13 14  1  0  0  0  0
 13 22  1  0  0  0  0
 13 26  2  0  0  0  0
 14 31  2  0  0  0  0
 15 17  1  0  0  0  0
 15 23  2  0  0  0  0
 16 18  1  0  0  0  0
 16 24  1  0  0  0  0
 16 30  2  0  0  0  0
 17 28  2  0  0  0  0
 17 29  1  0  0  0  0
 18 33  2  0  0  0  0
 19 20  1  0  0  0  0
 19 41  1  0  0  0  0
 20 32  2  0  0  0  0
 21 22  1  0  0  0  0
 21 42  1  0  0  0  0
 23 24  1  0  0  0  0
 23 43  1  0  0  0  0
 25 34  2  0  0  0  0
 25 35  1  0  0  0  0
 26 38  1  0  0  0  0
 27 36  2  0  0  0  0
 27 44  1  0  0  0  0
 28 34  1  0  0  0  0
 28 45  1  0  0  0  0
 29 35  2  0  0  0  0
 29 46  1  0  0  0  0
 30 40  1  0  0  0  0
 31 37  1  0  0  0  0
 31 47  1  0  0  0  0
 32 36  1  0  0  0  0
 33 39  1  0  0  0  0
 33 48  1  0  0  0  0
 34 49  1  0  0  0  0
 35 50  1  0  0  0  0
 36 51  1  0  0  0  0
 37 38  2  0  0  0  0
 38 52  1  0  0  0  0
 39 40  2  0  0  0  0
 40 53  1  0  0  0  0
M  END
> <PUBCHEM_COMPOUND_CID>
5492110

> <PUBCHEM_CONFORMER_RMSD>
0.8

> <PUBCHEM_CONFORMER_DIVERSEORDER>
2
205
148
173
190
143
149
43
122
211
161
52
74
123
46
172
31
30
42
166
138
111
195
75
137
4
204
61
145
22
212
81
153
77
106
151
131
144
164
157
64
215
1
57
160
16
99
163
177
147
158
189
117
67
146
170
72
32
155
44
162
116
218
124
6
79
208
19
181
207
168
178
128
197
154
152
17
73
185
210
159
56
24
213
183
70
121
40
26
136
63
96
25
38
150
206
21
62
171
216
182
65
192
194
118
114
169
55
139
7
217
191
203
37
113
23
53
34
78
132
174
108
47
102
39
10
165
115
175
66
199
209
176
85
107
18
36
179
186
15
104
59
140
135
50
167
141
51
103
90
180
45
201
3
202
188
84
48
127
76
105
156
58
33
68
20
54
187
133
80
5
97
27
69
49
126
8
41
120
100
214
91
29
60
98
109
28
129
184
71
134
86
82
130
14
95
35
198
11
110
92
88
9
200
94
119
193
142
196
112
101
125
89
13
12
87
93
83

> <PUBCHEM_MMFF94_PARTIAL_CHARGES>
58
1 -0.16
10 -0.53
11 0.03
12 0.05
13 0.09
14 0.08
15 0.05
16 0.09
17 0.03
18 0.08
19 -0.15
2 -0.16
20 0.08
21 -0.14
22 0.47
23 -0.14
24 0.47
25 0.08
26 0.08
27 -0.15
28 -0.15
29 -0.15
3 -0.17
30 0.08
31 -0.15
32 0.08
33 -0.15
34 -0.15
35 -0.15
36 -0.15
37 0.08
38 -0.15
39 0.08
4 -0.53
40 -0.15
41 0.15
42 0.15
43 0.15
44 0.15
45 0.15
46 0.15
47 0.15
48 0.15
49 0.15
5 -0.53
50 0.15
51 0.15
52 0.15
53 0.15
54 0.45
55 0.45
56 0.45
57 0.45
58 0.45
6 -0.57
7 -0.53
8 -0.57
9 -0.53

> <PUBCHEM_EFFECTIVE_ROTOR_COUNT>
4

> <PUBCHEM_PHARMACOPHORE_FEATURES>
16
1 1 acceptor
1 10 donor
1 2 acceptor
1 3 acceptor
1 4 donor
1 5 donor
1 6 acceptor
1 7 donor
1 8 acceptor
1 9 donor
6 1 12 13 14 21 22 rings
6 11 19 20 27 32 36 rings
6 13 14 26 31 37 38 rings
6 16 18 30 33 39 40 rings
6 17 25 28 29 34 35 rings
6 2 15 16 18 23 24 rings

> <PUBCHEM_HEAVY_ATOM_COUNT>
40

> <PUBCHEM_ATOM_DEF_STEREO_COUNT>
0

> <PUBCHEM_ATOM_UDEF_STEREO_COUNT>
0

> <PUBCHEM_BOND_DEF_STEREO_COUNT>
0

> <PUBCHEM_BOND_UDEF_STEREO_COUNT>
0

> <PUBCHEM_ISOTOPIC_ATOM_COUNT>
0

> <PUBCHEM_COMPONENT_COUNT>
1

> <PUBCHEM_CACTVS_TAUTO_COUNT>
828

> <PUBCHEM_CONFORMER_ID>
0053CD8E00000002

> <PUBCHEM_MMFF94_ENERGY>
137.2334

> <PUBCHEM_FEATURE_SELFOVERLAP>
81.26

> <PUBCHEM_SHAPE_FINGERPRINT>
10049733 162 18335711554849153246
10100884 174 18334010623224761138
10254770 206 18340480162569532127
10290309 65 17906734696463888933
10319688 45 18337107869580301517
10622 236 18261390096101557093
11093857 5 18055649325524192422
11136131 41 17477196602081762813
11607047 403 17977936106194621288
117089 54 17973732668851610371
11756154 67 18411141368149380143
11963148 33 18189048691105238282
12522641 68 16886086588221023996
131258 38 17831852826109779567
13347071 3 18342458162006837767
13690498 29 17894624842836161269
14068700 675 18408605885208308420
14117953 113 18411975872111545887
14705955 166 17059506136541314313
14856354 85 18199468766664381940
15320294 125 18261961747959485173
15320295 44 18261963964463420452
15400415 2 17619061733937495824
15439362 3 17544471956817024125
15467298 65 18116144481382318882
15684393 108 17240203218132568842
16989713 51 18260546676294233500
16992752 21 18338526321827440268
19246450 95 18198362684617319545
19301676 85 18123179376258160719
208703 8 18337668732368916831
23516275 137 17687208403774314602
23522609 53 17827107042722324628
32027 91 18197488731533578417
3504750 166 17899693454397179364
397830 11 18201990033190110864
4017518 198 18194115206273329941
4435113 14 17630059169560172374
45377200 153 18269850748516314526
4760202 70 18188781655834931548
484985 159 18336822010169462389
49967989 163 18270131123659247596
50080093 196 17823686478457640771
6201460 15 17765430238219505111
6691757 9 18199191681708808777
9896288 288 18200033915925427385

> <PUBCHEM_SHAPE_MULTIPOLES>
764.49
23.94
6.92
1.45
34.45
0.57
0.21
-23.92
-1.05
-14.79
0
3.27
-0.04
-3.19

> <PUBCHEM_SHAPE_SELFOVERLAP>
1741.786

> <PUBCHEM_SHAPE_VOLUME>
393.8

> <PUBCHEM_COORDINATE_TYPE>
2
5
10

$$$$
