556100
  -OEChem-10241303113D

 15 15  0     0  0  0  0  0  0999 V2000
    0.1211    2.6286   -0.0058 Cl  0  0  0  0  0  0  0  0  0  0  0  0
    1.8947    0.1979    0.0991 N   0  0  0  0  0  0  0  0  0  0  0  0
    0.1341   -1.3793    0.0578 N   0  0  0  0  0  0  0  0  0  0  0  0
    2.8294   -0.7792   -0.1312 N   0  0  0  0  0  0  0  0  0  0  0  0
    0.5058   -0.0796    0.0517 C   0  0  0  0  0  0  0  0  0  0  0  0
   -0.3839    0.9814    0.0016 C   0  0  0  0  0  0  0  0  0  0  0  0
   -1.7425    0.6897   -0.0448 C   0  0  0  0  0  0  0  0  0  0  0  0
   -2.1640   -0.6354   -0.0400 C   0  0  0  0  0  0  0  0  0  0  0  0
   -1.1947   -1.6240    0.0116 C   0  0  0  0  0  0  0  0  0  0  0  0
   -2.4848    1.4826   -0.0852 H   0  0  0  0  0  0  0  0  0  0  0  0
   -3.2179   -0.8864   -0.0757 H   0  0  0  0  0  0  0  0  0  0  0  0
    2.1692    1.1552   -0.0953 H   0  0  0  0  0  0  0  0  0  0  0  0
   -1.4712   -2.6732    0.0174 H   0  0  0  0  0  0  0  0  0  0  0  0
    3.7253   -0.4676    0.2411 H   0  0  0  0  0  0  0  0  0  0  0  0
    2.9613   -0.8763   -1.1372 H   0  0  0  0  0  0  0  0  0  0  0  0
  1  6  1  0  0  0  0
  2  4  1  0  0  0  0
  2  5  1  0  0  0  0
  2 12  1  0  0  0  0
  3  5  1  0  0  0  0
  3  9  2  0  0  0  0
  4 14  1  0  0  0  0
  4 15  1  0  0  0  0
  5  6  2  0  0  0  0
  6  7  1  0  0  0  0
  7  8  2  0  0  0  0
  7 10  1  0  0  0  0
  8  9  1  0  0  0  0
  8 11  1  0  0  0  0
  9 13  1  0  0  0  0
M  END
> <PUBCHEM_COMPOUND_CID>
556100

> <PUBCHEM_CONFORMER_RMSD>
0.4

> <PUBCHEM_CONFORMER_DIVERSEORDER>
1
2
3

> <PUBCHEM_MMFF94_PARTIAL_CHARGES>
15
1 -0.18
10 0.15
11 0.15
12 0.4
13 0.15
14 0.36
15 0.36
2 -0.51
3 -0.62
4 -0.71
5 0.41
6 0.18
7 -0.15
8 -0.15
9 0.16

> <PUBCHEM_EFFECTIVE_ROTOR_COUNT>
1

> <PUBCHEM_PHARMACOPHORE_FEATURES>
4
1 2 donor
1 3 acceptor
1 4 donor
6 3 5 6 7 8 9 rings

> <PUBCHEM_HEAVY_ATOM_COUNT>
9

> <PUBCHEM_ATOM_DEF_STEREO_COUNT>
0

> <PUBCHEM_ATOM_UDEF_STEREO_COUNT>
0

> <PUBCHEM_BOND_DEF_STEREO_COUNT>
0

> <PUBCHEM_BOND_UDEF_STEREO_COUNT>
0

> <PUBCHEM_ISOTOPIC_ATOM_COUNT>
0

> <PUBCHEM_COMPONENT_COUNT>
1

> <PUBCHEM_CACTVS_TAUTO_COUNT>
2

> <PUBCHEM_CONFORMER_ID>
00087C4400000001

> <PUBCHEM_MMFF94_ENERGY>
27.6207

> <PUBCHEM_FEATURE_SELFOVERLAP>
21.842

> <PUBCHEM_SHAPE_FINGERPRINT>
16714656 1 18410576149820275566
18185500 45 18408602582346348011
193761 8 17906171007559522571
21040471 1 17762333613494128104
23552423 10 17903637728247267199
241688 4 18411133640960077729
2748010 2 18411414046400143693

> <PUBCHEM_SHAPE_MULTIPOLES>
172.14
2.78
2.24
0.6
0.94
1.34
0
-1.14
-0.09
0.33
-0.01
-0.04
0.04
0.04

> <PUBCHEM_SHAPE_SELFOVERLAP>
344.866

> <PUBCHEM_SHAPE_VOLUME>
101.1

> <PUBCHEM_COORDINATE_TYPE>
2
5
10

$$$$
