16722832
  -OEChem-10241303063D

 71 74  0     0  0  0  0  0  0999 V2000
   -0.2412   -2.5576    0.1489 S   0  0  0  0  0  0  0  0  0  0  0  0
   -1.1456   -3.3934    0.9282 O   0  0  0  0  0  0  0  0  0  0  0  0
   -0.6783   -1.2328   -0.2710 O   0  0  0  0  0  0  0  0  0  0  0  0
   -3.7862    1.4036    0.3289 N   0  0  0  0  0  0  0  0  0  0  0  0
   -6.3164    0.3109    1.0796 N   0  0  0  0  0  0  0  0  0  0  0  0
    0.2555   -3.4317   -1.2333 N   0  0  0  0  0  0  0  0  0  0  0  0
    1.3713    3.0844   -1.0594 N   0  0  0  0  0  0  0  0  0  0  0  0
    4.0708    0.0125    1.2870 N   0  0  0  0  0  0  0  0  0  0  0  0
    2.7014    1.5514    0.1120 N   0  0  0  0  0  0  0  0  0  0  0  0
    3.6995    3.2751   -1.2445 N   0  0  0  0  0  0  0  0  0  0  0  0
   -4.1944    1.3963    1.7371 C   0  0  0  0  0  0  0  0  0  0  0  0
   -4.4407    0.4065   -0.5274 C   0  0  0  0  0  0  0  0  0  0  0  0
   -5.7206    1.4061    1.8543 C   0  0  0  0  0  0  0  0  0  0  0  0
   -5.9588    0.4494   -0.3376 C   0  0  0  0  0  0  0  0  0  0  0  0
   -2.4974    1.8238   -0.0180 C   0  0  0  0  0  0  0  0  0  0  0  0
   -7.7697    0.2984    1.2428 C   0  0  0  0  0  0  0  0  0  0  0  0
   -0.4146   -3.2062   -2.5221 C   0  0  0  0  0  0  0  0  0  0  0  0
   -1.4401    1.6392    0.8731 C   0  0  0  0  0  0  0  0  0  0  0  0
   -2.2697    2.4270   -1.2549 C   0  0  0  0  0  0  0  0  0  0  0  0
   -1.9114   -3.4576   -2.3332 C   0  0  0  0  0  0  0  0  0  0  0  0
   -0.1593   -1.7615   -2.9536 C   0  0  0  0  0  0  0  0  0  0  0  0
    0.1678   -4.1862   -3.5417 C   0  0  0  0  0  0  0  0  0  0  0  0
   -0.1554    2.0578    0.5273 C   0  0  0  0  0  0  0  0  0  0  0  0
   -0.9850    2.8457   -1.6007 C   0  0  0  0  0  0  0  0  0  0  0  0
    0.0722    2.6612   -0.7097 C   0  0  0  0  0  0  0  0  0  0  0  0
    1.2528   -2.3706    1.0327 C   0  0  0  0  0  0  0  0  0  0  0  0
    2.0626   -1.2574    0.8068 C   0  0  0  0  0  0  0  0  0  0  0  0
    1.6363   -3.3341    1.9656 C   0  0  0  0  0  0  0  0  0  0  0  0
    3.2557   -1.1080    1.5138 C   0  0  0  0  0  0  0  0  0  0  0  0
    2.8295   -3.1847    2.6724 C   0  0  0  0  0  0  0  0  0  0  0  0
    3.6392   -2.0717    2.4466 C   0  0  0  0  0  0  0  0  0  0  0  0
    2.6531    2.6140   -0.7138 C   0  0  0  0  0  0  0  0  0  0  0  0
    3.9443    1.1275    0.4222 C   0  0  0  0  0  0  0  0  0  0  0  0
    5.0970    1.7175   -0.0548 C   0  0  0  0  0  0  0  0  0  0  0  0
    4.9117    2.7983   -0.8926 C   0  0  0  0  0  0  0  0  0  0  0  0
    6.4643    1.2470    0.2893 C   0  0  0  0  0  0  0  0  0  0  0  0
   -3.7935    0.5053    2.2374 H   0  0  0  0  0  0  0  0  0  0  0  0
   -3.8086    2.2815    2.2580 H   0  0  0  0  0  0  0  0  0  0  0  0
   -4.2252    0.5764   -1.5886 H   0  0  0  0  0  0  0  0  0  0  0  0
   -4.0565   -0.5909   -0.2766 H   0  0  0  0  0  0  0  0  0  0  0  0
   -6.1081    2.3763    1.5148 H   0  0  0  0  0  0  0  0  0  0  0  0
   -5.9836    1.3029    2.9140 H   0  0  0  0  0  0  0  0  0  0  0  0
   -6.3996   -0.3708   -0.9173 H   0  0  0  0  0  0  0  0  0  0  0  0
   -6.3536    1.3889   -0.7478 H   0  0  0  0  0  0  0  0  0  0  0  0
   -8.2107   -0.5410    0.6938 H   0  0  0  0  0  0  0  0  0  0  0  0
   -8.2358    1.2251    0.8888 H   0  0  0  0  0  0  0  0  0  0  0  0
   -8.0366    0.1588    2.2962 H   0  0  0  0  0  0  0  0  0  0  0  0
   -1.5794    1.1677    1.8417 H   0  0  0  0  0  0  0  0  0  0  0  0
   -3.0825    2.5923   -1.9574 H   0  0  0  0  0  0  0  0  0  0  0  0
    1.2597   -3.6422   -1.3101 H   0  0  0  0  0  0  0  0  0  0  0  0
   -2.3908   -2.7298   -1.6709 H   0  0  0  0  0  0  0  0  0  0  0  0
   -2.0967   -4.4540   -1.9150 H   0  0  0  0  0  0  0  0  0  0  0  0
   -2.4352   -3.4006   -3.2946 H   0  0  0  0  0  0  0  0  0  0  0  0
   -0.8743   -1.0457   -2.5397 H   0  0  0  0  0  0  0  0  0  0  0  0
    0.8554   -1.4296   -2.7049 H   0  0  0  0  0  0  0  0  0  0  0  0
   -0.2690   -1.6678   -4.0414 H   0  0  0  0  0  0  0  0  0  0  0  0
   -0.3169   -4.0807   -4.5184 H   0  0  0  0  0  0  0  0  0  0  0  0
    0.0376   -5.2237   -3.2127 H   0  0  0  0  0  0  0  0  0  0  0  0
    1.2426   -4.0216   -3.6809 H   0  0  0  0  0  0  0  0  0  0  0  0
    0.6279    1.9307    1.2670 H   0  0  0  0  0  0  0  0  0  0  0  0
   -0.8209    3.3161   -2.5669 H   0  0  0  0  0  0  0  0  0  0  0  0
    1.7553   -0.5547    0.0435 H   0  0  0  0  0  0  0  0  0  0  0  0
    1.3990    3.7945   -1.7850 H   0  0  0  0  0  0  0  0  0  0  0  0
    1.0240   -4.2117    2.1525 H   0  0  0  0  0  0  0  0  0  0  0  0
    3.1289   -3.9358    3.3975 H   0  0  0  0  0  0  0  0  0  0  0  0
    4.5667   -1.9685    3.0042 H   0  0  0  0  0  0  0  0  0  0  0  0
    4.8938    0.0446    1.8810 H   0  0  0  0  0  0  0  0  0  0  0  0
    5.7504    3.3363   -1.3231 H   0  0  0  0  0  0  0  0  0  0  0  0
    7.2294    1.7755   -0.2901 H   0  0  0  0  0  0  0  0  0  0  0  0
    6.5766    0.1804    0.0682 H   0  0  0  0  0  0  0  0  0  0  0  0
    6.6755    1.4223    1.3491 H   0  0  0  0  0  0  0  0  0  0  0  0
  1  2  2  0  0  0  0
  1  3  2  0  0  0  0
  1  6  1  0  0  0  0
  1 26  1  0  0  0  0
  4 11  1  0  0  0  0
  4 12  1  0  0  0  0
  4 15  1  0  0  0  0
  5 13  1  0  0  0  0
  5 14  1  0  0  0  0
  5 16  1  0  0  0  0
  6 17  1  0  0  0  0
  6 50  1  0  0  0  0
  7 25  1  0  0  0  0
  7 32  1  0  0  0  0
  7 63  1  0  0  0  0
  8 29  1  0  0  0  0
  8 33  1  0  0  0  0
  8 67  1  0  0  0  0
  9 32  1  0  0  0  0
  9 33  2  0  0  0  0
 10 32  2  0  0  0  0
 10 35  1  0  0  0  0
 11 13  1  0  0  0  0
 11 37  1  0  0  0  0
 11 38  1  0  0  0  0
 12 14  1  0  0  0  0
 12 39  1  0  0  0  0
 12 40  1  0  0  0  0
 13 41  1  0  0  0  0
 13 42  1  0  0  0  0
 14 43  1  0  0  0  0
 14 44  1  0  0  0  0
 15 18  2  0  0  0  0
 15 19  1  0  0  0  0
 16 45  1  0  0  0  0
 16 46  1  0  0  0  0
 16 47  1  0  0  0  0
 17 20  1  0  0  0  0
 17 21  1  0  0  0  0
 17 22  1  0  0  0  0
 18 23  1  0  0  0  0
 18 48  1  0  0  0  0
 19 24  2  0  0  0  0
 19 49  1  0  0  0  0
 20 51  1  0  0  0  0
 20 52  1  0  0  0  0
 20 53  1  0  0  0  0
 21 54  1  0  0  0  0
 21 55  1  0  0  0  0
 21 56  1  0  0  0  0
 22 57  1  0  0  0  0
 22 58  1  0  0  0  0
 22 59  1  0  0  0  0
 23 25  2  0  0  0  0
 23 60  1  0  0  0  0
 24 25  1  0  0  0  0
 24 61  1  0  0  0  0
 26 27  1  0  0  0  0
 26 28  2  0  0  0  0
 27 29  2  0  0  0  0
 27 62  1  0  0  0  0
 28 30  1  0  0  0  0
 28 64  1  0  0  0  0
 29 31  1  0  0  0  0
 30 31  2  0  0  0  0
 30 65  1  0  0  0  0
 31 66  1  0  0  0  0
 33 34  1  0  0  0  0
 34 35  2  0  0  0  0
 34 36  1  0  0  0  0
 35 68  1  0  0  0  0
 36 69  1  0  0  0  0
 36 70  1  0  0  0  0
 36 71  1  0  0  0  0
M  END
> <PUBCHEM_COMPOUND_CID>
16722832

> <PUBCHEM_CONFORMER_RMSD>
1

> <PUBCHEM_CONFORMER_DIVERSEORDER>
1
102
36
27
91
3
117
109
52
123
112
8
24
115
76
89
101
79
68
55
90
16
46
13
105
23
65
31
88
110
67
70
77
97
41
111
62
104
87
120
54
121
39
42
107
53
116
94
60
58
98
10
50
5
106
61
64
4
69
85
118
2
48
57
14
26
66
93
32
103
45
59
35
51
73
86
96
113
119
84
19
34
80
114
49
37
83
28
7
122
56
99
38
92
75
22
71
9
81
25
78
72
100
15
18
30
40
47
44
20
6
43
74
82
95
17
21
108
11
29
63
33
12

> <PUBCHEM_MMFF94_PARTIAL_CHARGES>
45
1 1.45
10 -0.62
11 0.37
12 0.37
13 0.27
14 0.27
15 0.1
16 0.27
17 0.36
18 -0.15
19 -0.15
2 -0.65
23 -0.15
24 -0.15
25 0.1
26 -0.01
27 -0.15
28 -0.15
29 0.1
3 -0.65
30 -0.15
31 -0.15
32 0.72
33 0.41
34 -0.14
35 0.16
36 0.14
4 -0.84
48 0.15
49 0.15
5 -0.81
50 0.42
6 -0.91
60 0.15
61 0.15
62 0.15
63 0.4
64 0.15
65 0.15
66 0.15
67 0.4
68 0.15
7 -0.6
8 -0.6
9 -0.62

> <PUBCHEM_EFFECTIVE_ROTOR_COUNT>
9.2

> <PUBCHEM_PHARMACOPHORE_FEATURES>
13
1 2 acceptor
1 3 acceptor
1 4 cation
1 5 cation
1 6 donor
1 7 donor
1 8 donor
4 17 20 21 22 hydrophobe
4 7 9 10 32 cation
6 15 18 19 23 24 25 rings
6 26 27 28 29 30 31 rings
6 4 5 11 12 13 14 rings
6 9 10 32 33 34 35 rings

> <PUBCHEM_HEAVY_ATOM_COUNT>
36

> <PUBCHEM_ATOM_DEF_STEREO_COUNT>
0

> <PUBCHEM_ATOM_UDEF_STEREO_COUNT>
0

> <PUBCHEM_BOND_DEF_STEREO_COUNT>
0

> <PUBCHEM_BOND_UDEF_STEREO_COUNT>
0

> <PUBCHEM_ISOTOPIC_ATOM_COUNT>
0

> <PUBCHEM_COMPONENT_COUNT>
1

> <PUBCHEM_CACTVS_TAUTO_COUNT>
9

> <PUBCHEM_CONFORMER_ID>
00FF2B9000000001

> <PUBCHEM_MMFF94_ENERGY>
126.8585

> <PUBCHEM_FEATURE_SELFOVERLAP>
65.991

> <PUBCHEM_SHAPE_FINGERPRINT>
10675989 125 17042582784188785893
10816530 23 17344623966883513920
10985338 15 17702931651668573706
11763715 3 17248945233585705651
12156800 1 17684126764412626686
12422481 6 18196925579273017641
12788726 201 17767402752950872975
13111901 25 18340771555042441291
13383668 262 14188419618499764357
1361 2 18187087268944008929
140371 6 17328568532780175468
14395042 70 17414748417779301427
14725015 67 15383290424377428980
14840074 17 18410853261632686933
14918310 93 18261961760327429165
15274700 242 17606384708925155768
15297060 5 17632581573614358755
15324884 4 17331084250123489066
15444296 7 18340474592176174210
15815584 197 17897474807203313729
19301679 30 18188502285645585105
19319366 153 18333728052883144504
1979834 28 18058730174839172291
20771845 140 17917712397023472411
21344244 181 17916886654963623972
21792938 131 17986414203446521693
23516275 137 18056228858362778146
469060 322 17532074150377074598
50150288 127 17910976938408878617
5047190 2 18337661031291997663
5309563 4 18043811992077806968
563151 248 18342170082060749436
581034 39 17703215248950224943
6287921 2 17700134301156971095

> <PUBCHEM_SHAPE_MULTIPOLES>
698.11
12.73
5.83
2.83
14.29
3.92
-1.23
-9.16
7.15
-3.59
-3.18
-0.15
3.75
-3.65

> <PUBCHEM_SHAPE_SELFOVERLAP>
1469.116

> <PUBCHEM_SHAPE_VOLUME>
396

> <PUBCHEM_COORDINATE_TYPE>
2
5
10

$$$$
