129740
  -OEChem-10241303033D

 61 63  0     1  0  0  0  0  0999 V2000
   -1.3092   -2.1069    0.3940 O   0  0  0  0  0  0  0  0  0  0  0  0
   -3.5971    0.7644   -0.2724 O   0  0  0  0  0  0  0  0  0  0  0  0
   -3.0474    2.6426    0.9554 O   0  0  0  0  0  0  0  0  0  0  0  0
    1.4127    0.6787    0.1947 C   0  0  2  0  0  0  0  0  0  0  0  0
    2.5337   -0.3737   -0.1537 C   0  0  1  0  0  0  0  0  0  0  0  0
    0.0287   -0.0594    0.0050 C   0  0  1  0  0  0  0  0  0  0  0  0
   -0.1535   -1.3586    0.8354 C   0  0  2  0  0  0  0  0  0  0  0  0
    3.9883    0.1973   -0.2989 C   0  0  0  0  0  0  0  0  0  0  0  0
    2.4161   -1.6370    0.7264 C   0  0  0  0  0  0  0  0  0  0  0  0
    1.5101    1.8476   -0.8273 C   0  0  0  0  0  0  0  0  0  0  0  0
    1.0433   -2.2991    0.5810 C   0  0  0  0  0  0  0  0  0  0  0  0
   -1.2202    0.8423    0.0599 C   0  0  0  0  0  0  0  0  0  0  0  0
    3.9615    1.3977   -1.2788 C   0  0  0  0  0  0  0  0  0  0  0  0
    2.9094    2.4502   -0.9530 C   0  0  0  0  0  0  0  0  0  0  0  0
    1.5414    1.2697    1.6196 C   0  0  0  0  0  0  0  0  0  0  0  0
   -2.5083    0.0528    0.3113 C   0  0  2  0  0  0  0  0  0  0  0  0
   -2.4225   -1.4041   -0.1822 C   0  0  2  0  0  0  0  0  0  0  0  0
   -0.3221   -1.1705    2.3538 C   0  0  0  0  0  0  0  0  0  0  0  0
    4.9175   -0.8717   -0.9312 C   0  0  0  0  0  0  0  0  0  0  0  0
    4.6428    0.6085    1.0323 C   0  0  0  0  0  0  0  0  0  0  0  0
   -3.6696   -2.1971    0.2337 C   0  0  0  0  0  0  0  0  0  0  0  0
   -2.3080   -1.5085   -1.6813 C   0  0  0  0  0  0  0  0  0  0  0  0
   -3.7502    2.0570    0.1428 C   0  0  0  0  0  0  0  0  0  0  0  0
   -1.6716   -2.4984   -2.3162 C   0  0  0  0  0  0  0  0  0  0  0  0
   -4.9259    2.6763   -0.5503 C   0  0  0  0  0  0  0  0  0  0  0  0
    2.2881   -0.7229   -1.1714 H   0  0  0  0  0  0  0  0  0  0  0  0
    0.0489   -0.3982   -1.0429 H   0  0  0  0  0  0  0  0  0  0  0  0
    2.6174   -1.4130    1.7774 H   0  0  0  0  0  0  0  0  0  0  0  0
    3.1624   -2.3809    0.4296 H   0  0  0  0  0  0  0  0  0  0  0  0
    0.8101    2.6485   -0.5588 H   0  0  0  0  0  0  0  0  0  0  0  0
    1.2049    1.4912   -1.8203 H   0  0  0  0  0  0  0  0  0  0  0  0
    0.9644   -2.7121   -0.4343 H   0  0  0  0  0  0  0  0  0  0  0  0
    0.9848   -3.1735    1.2427 H   0  0  0  0  0  0  0  0  0  0  0  0
   -1.0849    1.5807    0.8511 H   0  0  0  0  0  0  0  0  0  0  0  0
   -1.2900    1.4104   -0.8772 H   0  0  0  0  0  0  0  0  0  0  0  0
    3.7649    1.0296   -2.2953 H   0  0  0  0  0  0  0  0  0  0  0  0
    4.9475    1.8785   -1.3172 H   0  0  0  0  0  0  0  0  0  0  0  0
    2.8994    3.2014   -1.7523 H   0  0  0  0  0  0  0  0  0  0  0  0
    3.1868    2.9900   -0.0425 H   0  0  0  0  0  0  0  0  0  0  0  0
    1.9817    0.5692    2.3306 H   0  0  0  0  0  0  0  0  0  0  0  0
    2.1655    2.1657    1.6487 H   0  0  0  0  0  0  0  0  0  0  0  0
    0.5817    1.5853    2.0347 H   0  0  0  0  0  0  0  0  0  0  0  0
   -2.6944    0.0233    1.3924 H   0  0  0  0  0  0  0  0  0  0  0  0
   -0.7725   -2.0646    2.8022 H   0  0  0  0  0  0  0  0  0  0  0  0
    0.6235   -0.9989    2.8709 H   0  0  0  0  0  0  0  0  0  0  0  0
   -0.9830   -0.3379    2.6042 H   0  0  0  0  0  0  0  0  0  0  0  0
    5.1182   -1.6988   -0.2427 H   0  0  0  0  0  0  0  0  0  0  0  0
    4.4813   -1.2896   -1.8454 H   0  0  0  0  0  0  0  0  0  0  0  0
    5.8886   -0.4388   -1.1998 H   0  0  0  0  0  0  0  0  0  0  0  0
    4.6253   -0.2089    1.7601 H   0  0  0  0  0  0  0  0  0  0  0  0
    5.6953    0.8772    0.8784 H   0  0  0  0  0  0  0  0  0  0  0  0
    4.1740    1.4791    1.4900 H   0  0  0  0  0  0  0  0  0  0  0  0
   -3.5928   -3.2521   -0.0570 H   0  0  0  0  0  0  0  0  0  0  0  0
   -3.7795   -2.1924    1.3248 H   0  0  0  0  0  0  0  0  0  0  0  0
   -4.5859   -1.7853   -0.2035 H   0  0  0  0  0  0  0  0  0  0  0  0
   -2.8138   -0.7608   -2.2873 H   0  0  0  0  0  0  0  0  0  0  0  0
   -1.6495   -2.5206   -3.4008 H   0  0  0  0  0  0  0  0  0  0  0  0
   -1.1732   -3.3059   -1.7928 H   0  0  0  0  0  0  0  0  0  0  0  0
   -5.8354    2.1235   -0.3024 H   0  0  0  0  0  0  0  0  0  0  0  0
   -4.7589    2.6796   -1.6304 H   0  0  0  0  0  0  0  0  0  0  0  0
   -5.0431    3.7099   -0.2125 H   0  0  0  0  0  0  0  0  0  0  0  0
  1  7  1  0  0  0  0
  1 17  1  0  0  0  0
  2 16  1  0  0  0  0
  2 23  1  0  0  0  0
  3 23  2  0  0  0  0
  4  5  1  0  0  0  0
  4  6  1  0  0  0  0
  4 10  1  0  0  0  0
  4 15  1  0  0  0  0
  5  8  1  0  0  0  0
  5  9  1  0  0  0  0
  5 26  1  0  0  0  0
  6  7  1  0  0  0  0
  6 12  1  0  0  0  0
  6 27  1  0  0  0  0
  7 11  1  0  0  0  0
  7 18  1  0  0  0  0
  8 13  1  0  0  0  0
  8 19  1  0  0  0  0
  8 20  1  0  0  0  0
  9 11  1  0  0  0  0
  9 28  1  0  0  0  0
  9 29  1  0  0  0  0
 10 14  1  0  0  0  0
 10 30  1  0  0  0  0
 10 31  1  0  0  0  0
 11 32  1  0  0  0  0
 11 33  1  0  0  0  0
 12 16  1  0  0  0  0
 12 34  1  0  0  0  0
 12 35  1  0  0  0  0
 13 14  1  0  0  0  0
 13 36  1  0  0  0  0
 13 37  1  0  0  0  0
 14 38  1  0  0  0  0
 14 39  1  0  0  0  0
 15 40  1  0  0  0  0
 15 41  1  0  0  0  0
 15 42  1  0  0  0  0
 16 17  1  0  0  0  0
 16 43  1  0  0  0  0
 17 21  1  0  0  0  0
 17 22  1  0  0  0  0
 18 44  1  0  0  0  0
 18 45  1  0  0  0  0
 18 46  1  0  0  0  0
 19 47  1  0  0  0  0
 19 48  1  0  0  0  0
 19 49  1  0  0  0  0
 20 50  1  0  0  0  0
 20 51  1  0  0  0  0
 20 52  1  0  0  0  0
 21 53  1  0  0  0  0
 21 54  1  0  0  0  0
 21 55  1  0  0  0  0
 22 24  2  0  0  0  0
 22 56  1  0  0  0  0
 23 25  1  0  0  0  0
 24 57  1  0  0  0  0
 24 58  1  0  0  0  0
 25 59  1  0  0  0  0
 25 60  1  0  0  0  0
 25 61  1  0  0  0  0
M  END
> <PUBCHEM_COMPOUND_CID>
129740

> <PUBCHEM_CONFORMER_RMSD>
0.8

> <PUBCHEM_CONFORMER_DIVERSEORDER>
1
2
3

> <PUBCHEM_MMFF94_PARTIAL_CHARGES>
13
1 -0.56
16 0.28
17 0.42
2 -0.43
22 -0.29
23 0.66
24 -0.3
25 0.06
3 -0.57
56 0.15
57 0.15
58 0.15
7 0.28

> <PUBCHEM_EFFECTIVE_ROTOR_COUNT>
5

> <PUBCHEM_PHARMACOPHORE_FEATURES>
7
1 1 acceptor
1 24 hydrophobe
1 3 acceptor
3 8 19 20 hydrophobe
6 1 6 7 12 16 17 rings
6 4 5 6 7 9 11 rings
6 4 5 8 10 13 14 rings

> <PUBCHEM_HEAVY_ATOM_COUNT>
25

> <PUBCHEM_ATOM_DEF_STEREO_COUNT>
6

> <PUBCHEM_ATOM_UDEF_STEREO_COUNT>
0

> <PUBCHEM_BOND_DEF_STEREO_COUNT>
0

> <PUBCHEM_BOND_UDEF_STEREO_COUNT>
0

> <PUBCHEM_ISOTOPIC_ATOM_COUNT>
0

> <PUBCHEM_COMPONENT_COUNT>
1

> <PUBCHEM_CACTVS_TAUTO_COUNT>
1

> <PUBCHEM_CONFORMER_ID>
0001FACC00000001

> <PUBCHEM_MMFF94_ENERGY>
105.2559

> <PUBCHEM_FEATURE_SELFOVERLAP>
35.556

> <PUBCHEM_SHAPE_FINGERPRINT>
10062212 137 18410001148500144018
10165383 225 16588884364278101618
10863032 1 18341612572981871410
10948715 1 18334300850726979427
11578080 2 17632001065718360240
12173636 292 18117284863501261614
12403260 363 18188765188460189378
12403814 3 17987525977691483623
12422481 6 18045197368460143210
12633257 1 17749102288566490480
12714826 92 17703236246617878399
12788726 201 18192717962805586331
13140716 1 18260266378138567976
13224815 77 18268147746105176914
13464514 151 18260555493740460578
13544653 18 13470416560671463200
13583140 156 16988269980530762976
14178342 30 18336248098852307658
14251751 93 18411983580754707711
14790565 3 18048882892260217033
15196674 1 18335143111468204940
15534591 1 18408605859802085763
15664445 248 16833718425668540159
1601671 61 18115028502828161140
16752209 62 18131056161130369303
16945 1 18191594059742259058
17349148 13 18190162672224061714
17980427 23 18192121911887498122
18186145 218 17458622367543287622
192875 21 18191572258825692676
19930381 70 17040079208643658125
20602899 9 16917065538865266631
20691752 17 17313382301446482778
21033650 10 18197244579416358604
21524375 3 18341329973309168077
21864079 5 18260554471417002652
22907989 373 17610918054915269206
23227448 37 18334016069010384543
23402539 116 18334570248962431476
23419403 2 14155681723911479627
23557571 272 17845075428227974451
23558518 356 18042688492698707192
23559900 14 18202285784706138952
23598288 3 18341896341987933735
25 1 18041280984918886090
25147074 1 18190440723953841699
2748010 2 16609132261655553802
298252 57 18271525291186023723
335352 9 18262239907142010166
34934 24 18336259037928385712
350125 39 18408328800215155945
4340502 62 17168718418899023241
469060 322 14274590693582384153
474 4 18113901528736207617
5104073 3 18260547853188930912
633830 44 18113340829830822622
70251023 43 17913477215261354487
7164475 11 18270397333641478996
7832392 63 18409726223073947704
90525 40 18272651229837372767
9709674 26 18264216970730106166
9981440 41 17545033166601406232
9999458 23 17605281662222055827

> <PUBCHEM_SHAPE_MULTIPOLES>
496.88
8.74
3.17
1.62
1.51
0.59
-0.06
3.99
-1.76
-2.82
-0.48
0.07
-0.64
-0.92

> <PUBCHEM_SHAPE_SELFOVERLAP>
1031.745

> <PUBCHEM_SHAPE_VOLUME>
280

> <PUBCHEM_COORDINATE_TYPE>
2
5
10

$$$$
