22831862
  -OEChem-10241303103D

 27 28  0     0  0  0  0  0  0999 V2000
    0.0371    2.1679    0.1765 O   0  0  0  0  0  0  0  0  0  0  0  0
    2.8455   -1.4118   -0.1449 O   0  0  0  0  0  0  0  0  0  0  0  0
    0.6393   -2.0344   -0.1713 O   0  0  0  0  0  0  0  0  0  0  0  0
    1.3801    2.5250    0.1905 N   0  0  0  0  0  0  0  0  0  0  0  0
   -0.0667    0.8187    0.0682 C   0  0  0  0  0  0  0  0  0  0  0  0
    1.1842    0.2632    0.0092 C   0  0  0  0  0  0  0  0  0  0  0  0
   -1.4142    0.3042    0.0406 C   0  0  0  0  0  0  0  0  0  0  0  0
    2.0458    1.3709    0.0896 C   0  0  0  0  0  0  0  0  0  0  0  0
   -1.8397   -0.5921    1.0211 C   0  0  0  0  0  0  0  0  0  0  0  0
   -2.2915    0.7026   -0.9679 C   0  0  0  0  0  0  0  0  0  0  0  0
    3.5183    1.3795    0.0744 C   0  0  0  0  0  0  0  0  0  0  0  0
    1.4929   -1.1298   -0.1074 C   0  0  0  0  0  0  0  0  0  0  0  0
   -3.1424   -1.0898    0.9931 C   0  0  0  0  0  0  0  0  0  0  0  0
   -3.5943    0.2050   -0.9959 C   0  0  0  0  0  0  0  0  0  0  0  0
   -4.0197   -0.6913   -0.0153 C   0  0  0  0  0  0  0  0  0  0  0  0
    3.2253   -2.7877   -0.2606 C   0  0  0  0  0  0  0  0  0  0  0  0
   -1.1725   -0.9094    1.8191 H   0  0  0  0  0  0  0  0  0  0  0  0
   -1.9759    1.3987   -1.7416 H   0  0  0  0  0  0  0  0  0  0  0  0
    3.9012    0.9512   -0.8574 H   0  0  0  0  0  0  0  0  0  0  0  0
    3.9163    2.3973    0.1527 H   0  0  0  0  0  0  0  0  0  0  0  0
    3.9204    0.8072    0.9165 H   0  0  0  0  0  0  0  0  0  0  0  0
   -3.4742   -1.7865    1.7574 H   0  0  0  0  0  0  0  0  0  0  0  0
   -4.2773    0.5148   -1.7814 H   0  0  0  0  0  0  0  0  0  0  0  0
   -5.0341   -1.0787   -0.0371 H   0  0  0  0  0  0  0  0  0  0  0  0
    4.3171   -2.8390   -0.2763 H   0  0  0  0  0  0  0  0  0  0  0  0
    2.8388   -3.2078   -1.1937 H   0  0  0  0  0  0  0  0  0  0  0  0
    2.8577   -3.3534    0.6006 H   0  0  0  0  0  0  0  0  0  0  0  0
  1  4  1  0  0  0  0
  1  5  1  0  0  0  0
  2 12  1  0  0  0  0
  2 16  1  0  0  0  0
  3 12  2  0  0  0  0
  4  8  2  0  0  0  0
  5  6  2  0  0  0  0
  5  7  1  0  0  0  0
  6  8  1  0  0  0  0
  6 12  1  0  0  0  0
  7  9  2  0  0  0  0
  7 10  1  0  0  0  0
  8 11  1  0  0  0  0
  9 13  1  0  0  0  0
  9 17  1  0  0  0  0
 10 14  2  0  0  0  0
 10 18  1  0  0  0  0
 11 19  1  0  0  0  0
 11 20  1  0  0  0  0
 11 21  1  0  0  0  0
 13 15  2  0  0  0  0
 13 22  1  0  0  0  0
 14 15  1  0  0  0  0
 14 23  1  0  0  0  0
 15 24  1  0  0  0  0
 16 25  1  0  0  0  0
 16 26  1  0  0  0  0
 16 27  1  0  0  0  0
M  END
> <PUBCHEM_COMPOUND_CID>
22831862

> <PUBCHEM_CONFORMER_RMSD>
0.6

> <PUBCHEM_CONFORMER_DIVERSEORDER>
4
9
1
5
3
8
2
6
7

> <PUBCHEM_MMFF94_PARTIAL_CHARGES>
21
1 -0.02
10 -0.15
11 0.18
12 0.81
13 -0.15
14 -0.15
15 -0.15
16 0.28
17 0.15
18 0.15
2 -0.43
22 0.15
23 0.15
24 0.15
3 -0.57
4 -0.41
5 0.09
6 -0.09
7 0.05
8 0.11
9 -0.15

> <PUBCHEM_EFFECTIVE_ROTOR_COUNT>
3

> <PUBCHEM_PHARMACOPHORE_FEATURES>
4
1 3 acceptor
1 4 acceptor
5 1 4 5 6 8 rings
6 7 9 10 13 14 15 rings

> <PUBCHEM_HEAVY_ATOM_COUNT>
16

> <PUBCHEM_ATOM_DEF_STEREO_COUNT>
0

> <PUBCHEM_ATOM_UDEF_STEREO_COUNT>
0

> <PUBCHEM_BOND_DEF_STEREO_COUNT>
0

> <PUBCHEM_BOND_UDEF_STEREO_COUNT>
0

> <PUBCHEM_ISOTOPIC_ATOM_COUNT>
0

> <PUBCHEM_COMPONENT_COUNT>
1

> <PUBCHEM_CACTVS_TAUTO_COUNT>
1

> <PUBCHEM_CONFORMER_ID>
015C62F600000004

> <PUBCHEM_MMFF94_ENERGY>
32.9306

> <PUBCHEM_FEATURE_SELFOVERLAP>
20.297

> <PUBCHEM_SHAPE_FINGERPRINT>
1 1 18267584804509887044
10608611 8 18260822726732426133
10967382 1 18411419552833086154
11471102 20 18411133649829554421
116883 192 18194959643323413965
12236239 1 17274547623983974345
12363563 72 18268154145448848694
12553582 1 18122072996148944514
13140716 1 17981602985724824928
13296908 3 18408885122670165827
14251717 144 18412822516664043631
15219456 202 18333730234604957877
15442244 35 18269843008325727513
16945 1 18341051937978879832
17990270 104 18408038511411704841
19049666 15 18260823770388210961
200 152 18130221683555218277
20201158 50 18334855060685665049
20279233 1 18187363276864570907
204376 136 18053097608339964512
20645477 70 18411128130939199047
20671657 53 18340209566095849894
21501502 16 18340493248691181369
21730867 7 18336265738193288537
221490 88 18408328799619667427
22802520 49 18260263023795301701
23114952 82 18113622278637037212
2334 1 18412267198973086800
23402539 116 17459732899946349445
23526113 38 18334003995762506385
23557571 272 17458337559498103293
23559900 14 18189888722051288898
2748010 2 18338229371629666524
33824 294 18338797939141796202
458136 41 18048900754880962449
474 4 16842745325521868208
5493415 88 18337390422777627130
6049 1 18113344119786366149
7364860 26 18412825802366590674
77492 1 17346603001729035281
81228 2 17621040859071652160
81539 233 18261110841807346796
8272917 22 18343309175822171855
8809292 202 18189899699486303535
9709674 26 18261672662152974075

> <PUBCHEM_SHAPE_MULTIPOLES>
306.68
6.47
2.52
0.87
2.21
0.51
0.01
1.85
-0.49
-3.01
-0.02
0.68
0.06
0.8

> <PUBCHEM_SHAPE_SELFOVERLAP>
659.975

> <PUBCHEM_SHAPE_VOLUME>
170.8

> <PUBCHEM_COORDINATE_TYPE>
2
5
10

$$$$
