3035736
  -OEChem-10241302563D

 35 36  0     0  0  0  0  0  0999 V2000
    2.1740    3.3289   -0.2661 S   0  0  0  0  0  0  0  0  0  0  0  0
   -2.8101    2.3237   -0.5772 O   0  0  0  0  0  0  0  0  0  0  0  0
    1.5718    0.6179   -0.2974 N   0  0  0  0  0  0  0  0  0  0  0  0
   -0.1377    2.1507    0.0826 N   0  0  0  0  0  0  0  0  0  0  0  0
   -1.0102    1.0933    0.2069 N   0  0  0  0  0  0  0  0  0  0  0  0
    2.7492   -0.1125    0.0011 C   0  0  0  0  0  0  0  0  0  0  0  0
    3.0620   -1.2525   -0.7201 C   0  0  0  0  0  0  0  0  0  0  0  0
    3.5662    0.3428    1.0229 C   0  0  0  0  0  0  0  0  0  0  0  0
    4.2253   -1.9576   -0.4111 C   0  0  0  0  0  0  0  0  0  0  0  0
    2.1878   -1.7525   -1.8243 C   0  0  0  0  0  0  0  0  0  0  0  0
    4.7294   -0.3622    1.3318 C   0  0  0  0  0  0  0  0  0  0  0  0
    5.0589   -1.5124    0.6149 C   0  0  0  0  0  0  0  0  0  0  0  0
   -3.2123    0.0923    0.0270 C   0  0  0  0  0  0  0  0  0  0  0  0
    1.2159    1.9570   -0.1730 C   0  0  0  0  0  0  0  0  0  0  0  0
   -2.3511    1.2512   -0.1458 C   0  0  0  0  0  0  0  0  0  0  0  0
   -4.5780    0.2657    0.2519 C   0  0  0  0  0  0  0  0  0  0  0  0
   -2.6728   -1.1927   -0.0324 C   0  0  0  0  0  0  0  0  0  0  0  0
   -5.4042   -0.8459    0.4174 C   0  0  0  0  0  0  0  0  0  0  0  0
   -3.4992   -2.3043    0.1329 C   0  0  0  0  0  0  0  0  0  0  0  0
   -4.8649   -2.1308    0.3579 C   0  0  0  0  0  0  0  0  0  0  0  0
    3.3197    1.2156    1.6187 H   0  0  0  0  0  0  0  0  0  0  0  0
    4.4966   -2.8564   -0.9585 H   0  0  0  0  0  0  0  0  0  0  0  0
    0.8523    0.0626   -0.7540 H   0  0  0  0  0  0  0  0  0  0  0  0
    1.2262   -2.0931   -1.4262 H   0  0  0  0  0  0  0  0  0  0  0  0
    2.0171   -0.9678   -2.5690 H   0  0  0  0  0  0  0  0  0  0  0  0
    2.6430   -2.5985   -2.3509 H   0  0  0  0  0  0  0  0  0  0  0  0
    5.3750   -0.0201    2.1355 H   0  0  0  0  0  0  0  0  0  0  0  0
    5.9636   -2.0624    0.8570 H   0  0  0  0  0  0  0  0  0  0  0  0
   -0.5275    3.0791    0.2088 H   0  0  0  0  0  0  0  0  0  0  0  0
   -5.0173    1.2584    0.3060 H   0  0  0  0  0  0  0  0  0  0  0  0
   -1.6202   -1.3714   -0.2326 H   0  0  0  0  0  0  0  0  0  0  0  0
   -0.6382    0.2612    0.6524 H   0  0  0  0  0  0  0  0  0  0  0  0
   -6.4675   -0.7111    0.5933 H   0  0  0  0  0  0  0  0  0  0  0  0
   -3.0809   -3.3053    0.0804 H   0  0  0  0  0  0  0  0  0  0  0  0
   -5.5084   -2.9963    0.4853 H   0  0  0  0  0  0  0  0  0  0  0  0
  1 14  2  0  0  0  0
  2 15  2  0  0  0  0
  3  6  1  0  0  0  0
  3 14  1  0  0  0  0
  3 23  1  0  0  0  0
  4  5  1  0  0  0  0
  4 14  1  0  0  0  0
  4 29  1  0  0  0  0
  5 15  1  0  0  0  0
  5 32  1  0  0  0  0
  6  7  1  0  0  0  0
  6  8  2  0  0  0  0
  7  9  2  0  0  0  0
  7 10  1  0  0  0  0
  8 11  1  0  0  0  0
  8 21  1  0  0  0  0
  9 12  1  0  0  0  0
  9 22  1  0  0  0  0
 10 24  1  0  0  0  0
 10 25  1  0  0  0  0
 10 26  1  0  0  0  0
 11 12  2  0  0  0  0
 11 27  1  0  0  0  0
 12 28  1  0  0  0  0
 13 15  1  0  0  0  0
 13 16  2  0  0  0  0
 13 17  1  0  0  0  0
 16 18  1  0  0  0  0
 16 30  1  0  0  0  0
 17 19  2  0  0  0  0
 17 31  1  0  0  0  0
 18 20  2  0  0  0  0
 18 33  1  0  0  0  0
 19 20  1  0  0  0  0
 19 34  1  0  0  0  0
 20 35  1  0  0  0  0
M  END
> <PUBCHEM_COMPOUND_CID>
3035736

> <PUBCHEM_CONFORMER_RMSD>
0.8

> <PUBCHEM_CONFORMER_DIVERSEORDER>
1
53
27
40
39
4
58
59
54
36
31
7
19
23
30
48
46
12
57
37
55
60
10
21
35
33
47
8
49
52
20
17
32
41
51
15
13
45
9
34
50
44
38
5
22
61
43
56
25
14
26
42
16
29
11
24
6
18
28
2
3

> <PUBCHEM_MMFF94_PARTIAL_CHARGES>
32
1 -0.38
10 0.14
11 -0.15
12 -0.15
13 0.09
14 0.5
15 0.54
16 -0.15
17 -0.15
18 -0.15
19 -0.15
2 -0.57
20 -0.15
21 0.15
22 0.15
23 0.37
27 0.15
28 0.15
29 0.37
3 -0.55
30 0.15
31 0.15
32 0.37
33 0.15
34 0.15
35 0.15
4 -0.43
5 -0.43
6 0.12
7 -0.14
8 -0.15
9 -0.15

> <PUBCHEM_EFFECTIVE_ROTOR_COUNT>
6

> <PUBCHEM_PHARMACOPHORE_FEATURES>
7
1 1 acceptor
1 2 acceptor
1 3 donor
1 4 donor
1 5 donor
6 13 16 17 18 19 20 rings
6 6 7 8 9 11 12 rings

> <PUBCHEM_HEAVY_ATOM_COUNT>
20

> <PUBCHEM_ATOM_DEF_STEREO_COUNT>
0

> <PUBCHEM_ATOM_UDEF_STEREO_COUNT>
0

> <PUBCHEM_BOND_DEF_STEREO_COUNT>
0

> <PUBCHEM_BOND_UDEF_STEREO_COUNT>
0

> <PUBCHEM_ISOTOPIC_ATOM_COUNT>
0

> <PUBCHEM_COMPONENT_COUNT>
1

> <PUBCHEM_CACTVS_TAUTO_COUNT>
6

> <PUBCHEM_CONFORMER_ID>
002E525800000001

> <PUBCHEM_MMFF94_ENERGY>
70.8814

> <PUBCHEM_FEATURE_SELFOVERLAP>
37.1

> <PUBCHEM_SHAPE_FINGERPRINT>
105312 117 17461708512205064533
12107183 9 18340781334408635689
12363563 72 18334304157909696330
12633257 1 18340780286045678929
13402501 40 18342739606776170667
13533116 47 18199752608599491379
13911882 115 17988647355198171838
14178342 30 18129109926279667600
1420 369 18409730664086164115
14251751 18 18335137596424306801
15352361 1 18410293605481279683
15422964 175 18271245993768210444
16126227 98 17624119904722948080
17492 89 18336829813639540867
1813 80 17604151518935166941
19141452 34 18342740719842145627
193927 3 18261119577459551747
1979834 28 17775577437209549439
20261772 1 17989483043827233286
20374829 77 18333167271930184547
20403669 9 18410577284055969895
20567600 70 18335136527241239978
20626108 58 18040714749590030420
20645477 70 18335983185317176965
21033648 29 17560501916133882722
21315764 119 16226313851463497859
21403212 168 18269846316341888041
221490 88 18335426815079482528
23559900 14 18410285943444649265
3004659 81 18259990383117627244
314173 41 18409170999814203656
316301 35 18266737975026375506
3421961 26 18411418457458573072
5104073 3 18342455932712739392
6823239 73 18130243587687916462
9709674 26 18262241148165934531

> <PUBCHEM_SHAPE_MULTIPOLES>
394.63
12.32
3.22
1.03
5.59
1.81
0.14
-7.65
-2.96
-0.72
0.58
-1.11
-0.38
0.63

> <PUBCHEM_SHAPE_SELFOVERLAP>
824.392

> <PUBCHEM_SHAPE_VOLUME>
224.6

> <PUBCHEM_COORDINATE_TYPE>
2
5
10

$$$$
