66428
  -OEChem-10241303023D

 50 53  0     1  0  0  0  0  0999 V2000
    4.5774   -0.9329   -0.9954 O   0  0  0  0  0  0  0  0  0  0  0  0
   -6.3521   -0.2084   -0.1421 O   0  0  0  0  0  0  0  0  0  0  0  0
    2.1863   -0.4872   -0.5012 C   0  0  1  0  0  0  0  0  0  0  0  0
    1.5180    0.7518    0.1353 C   0  0  2  0  0  0  0  0  0  0  0  0
    0.0167    0.8256   -0.1565 C   0  0  1  0  0  0  0  0  0  0  0  0
    3.6816   -0.2214   -0.1442 C   0  0  2  0  0  0  0  0  0  0  0  0
    2.4072    1.9060   -0.3144 C   0  0  0  0  0  0  0  0  0  0  0  0
    1.5321   -1.7382    0.1078 C   0  0  0  0  0  0  0  0  0  0  0  0
   -0.6765   -0.4381    0.4359 C   0  0  2  0  0  0  0  0  0  0  0  0
    3.8270    1.3105   -0.3515 C   0  0  0  0  0  0  0  0  0  0  0  0
    0.0011   -1.7388   -0.0703 C   0  0  0  0  0  0  0  0  0  0  0  0
   -0.6356    2.0744    0.4416 C   0  0  0  0  0  0  0  0  0  0  0  0
    2.0196   -0.5534   -2.0483 C   0  0  0  0  0  0  0  0  0  0  0  0
    4.0905   -0.6064    1.2833 C   0  0  0  0  0  0  0  0  0  0  0  0
   -2.1898   -0.3801    0.2446 C   0  0  0  0  0  0  0  0  0  0  0  0
   -2.0910    2.1653   -0.0075 C   0  0  0  0  0  0  0  0  0  0  0  0
   -2.8442    0.8604    0.0801 C   0  0  0  0  0  0  0  0  0  0  0  0
    5.5193   -0.1970    1.5714 C   0  0  0  0  0  0  0  0  0  0  0  0
   -2.9780   -1.5425    0.3159 C   0  0  0  0  0  0  0  0  0  0  0  0
   -4.2427    0.9018   -0.0598 C   0  0  0  0  0  0  0  0  0  0  0  0
   -4.3672   -1.4863    0.1840 C   0  0  0  0  0  0  0  0  0  0  0  0
   -4.9996   -0.2650   -0.0086 C   0  0  0  0  0  0  0  0  0  0  0  0
    1.6155    0.6938    1.2297 H   0  0  0  0  0  0  0  0  0  0  0  0
   -0.1456    0.8611   -1.2412 H   0  0  0  0  0  0  0  0  0  0  0  0
    2.3517    2.7531    0.3773 H   0  0  0  0  0  0  0  0  0  0  0  0
    2.1206    2.2722   -1.3066 H   0  0  0  0  0  0  0  0  0  0  0  0
    1.7328   -1.7937    1.1841 H   0  0  0  0  0  0  0  0  0  0  0  0
    1.9553   -2.6481   -0.3342 H   0  0  0  0  0  0  0  0  0  0  0  0
   -0.5276   -0.4176    1.5267 H   0  0  0  0  0  0  0  0  0  0  0  0
    4.2897    1.5370   -1.3201 H   0  0  0  0  0  0  0  0  0  0  0  0
    4.4354    1.8203    0.3964 H   0  0  0  0  0  0  0  0  0  0  0  0
   -0.2593   -1.9129   -1.1209 H   0  0  0  0  0  0  0  0  0  0  0  0
   -0.3826   -2.6039    0.4830 H   0  0  0  0  0  0  0  0  0  0  0  0
   -0.1129    2.9851    0.1290 H   0  0  0  0  0  0  0  0  0  0  0  0
   -0.5845    2.0374    1.5374 H   0  0  0  0  0  0  0  0  0  0  0  0
    2.4855    0.2982   -2.5541 H   0  0  0  0  0  0  0  0  0  0  0  0
    2.4926   -1.4598   -2.4446 H   0  0  0  0  0  0  0  0  0  0  0  0
    0.9759   -0.5795   -2.3701 H   0  0  0  0  0  0  0  0  0  0  0  0
    4.0327   -1.6956    1.4012 H   0  0  0  0  0  0  0  0  0  0  0  0
    3.4367   -0.1596    2.0385 H   0  0  0  0  0  0  0  0  0  0  0  0
   -2.1215    2.5010   -1.0521 H   0  0  0  0  0  0  0  0  0  0  0  0
   -2.5968    2.9276    0.5975 H   0  0  0  0  0  0  0  0  0  0  0  0
    5.3871   -0.4076   -1.1079 H   0  0  0  0  0  0  0  0  0  0  0  0
    6.2337   -0.5780    0.8365 H   0  0  0  0  0  0  0  0  0  0  0  0
    5.6566    0.8817    1.6693 H   0  0  0  0  0  0  0  0  0  0  0  0
    5.8179   -0.6213    2.5379 H   0  0  0  0  0  0  0  0  0  0  0  0
   -2.5292   -2.5170    0.4832 H   0  0  0  0  0  0  0  0  0  0  0  0
   -4.7431    1.8565   -0.2087 H   0  0  0  0  0  0  0  0  0  0  0  0
   -4.9422   -2.4071    0.2381 H   0  0  0  0  0  0  0  0  0  0  0  0
   -6.7130   -1.1096   -0.0808 H   0  0  0  0  0  0  0  0  0  0  0  0
  1  6  1  0  0  0  0
  1 43  1  0  0  0  0
  2 22  1  0  0  0  0
  2 50  1  0  0  0  0
  3  4  1  0  0  0  0
  3  6  1  0  0  0  0
  3  8  1  0  0  0  0
  3 13  1  0  0  0  0
  4  5  1  0  0  0  0
  4  7  1  0  0  0  0
  4 23  1  0  0  0  0
  5  9  1  0  0  0  0
  5 12  1  0  0  0  0
  5 24  1  0  0  0  0
  6 10  1  0  0  0  0
  6 14  1  0  0  0  0
  7 10  1  0  0  0  0
  7 25  1  0  0  0  0
  7 26  1  0  0  0  0
  8 11  1  0  0  0  0
  8 27  1  0  0  0  0
  8 28  1  0  0  0  0
  9 11  1  0  0  0  0
  9 15  1  0  0  0  0
  9 29  1  0  0  0  0
 10 30  1  0  0  0  0
 10 31  1  0  0  0  0
 11 32  1  0  0  0  0
 11 33  1  0  0  0  0
 12 16  1  0  0  0  0
 12 34  1  0  0  0  0
 12 35  1  0  0  0  0
 13 36  1  0  0  0  0
 13 37  1  0  0  0  0
 13 38  1  0  0  0  0
 14 18  1  0  0  0  0
 14 39  1  0  0  0  0
 14 40  1  0  0  0  0
 15 17  2  0  0  0  0
 15 19  1  0  0  0  0
 16 17  1  0  0  0  0
 16 41  1  0  0  0  0
 16 42  1  0  0  0  0
 17 20  1  0  0  0  0
 18 44  1  0  0  0  0
 18 45  1  0  0  0  0
 18 46  1  0  0  0  0
 19 21  2  0  0  0  0
 19 47  1  0  0  0  0
 20 22  2  0  0  0  0
 20 48  1  0  0  0  0
 21 22  1  0  0  0  0
 21 49  1  0  0  0  0
M  END
> <PUBCHEM_COMPOUND_CID>
66428

> <PUBCHEM_CONFORMER_RMSD>
0.6

> <PUBCHEM_CONFORMER_DIVERSEORDER>
1

> <PUBCHEM_MMFF94_PARTIAL_CHARGES>
16
1 -0.68
15 -0.14
16 0.14
17 -0.14
19 -0.15
2 -0.53
20 -0.15
21 -0.15
22 0.08
43 0.4
47 0.15
48 0.15
49 0.15
50 0.45
6 0.28
9 0.14

> <PUBCHEM_EFFECTIVE_ROTOR_COUNT>
2.4

> <PUBCHEM_PHARMACOPHORE_FEATURES>
8
1 1 acceptor
1 1 donor
1 18 hydrophobe
1 2 donor
5 3 4 6 7 10 rings
6 15 17 19 20 21 22 rings
6 3 4 5 8 9 11 rings
6 5 9 12 15 16 17 rings

> <PUBCHEM_HEAVY_ATOM_COUNT>
22

> <PUBCHEM_ATOM_DEF_STEREO_COUNT>
5

> <PUBCHEM_ATOM_UDEF_STEREO_COUNT>
0

> <PUBCHEM_BOND_DEF_STEREO_COUNT>
0

> <PUBCHEM_BOND_UDEF_STEREO_COUNT>
0

> <PUBCHEM_ISOTOPIC_ATOM_COUNT>
0

> <PUBCHEM_COMPONENT_COUNT>
1

> <PUBCHEM_CACTVS_TAUTO_COUNT>
9

> <PUBCHEM_CONFORMER_ID>
0001037C00000001

> <PUBCHEM_MMFF94_ENERGY>
82.8305

> <PUBCHEM_FEATURE_SELFOVERLAP>
40.689

> <PUBCHEM_SHAPE_FINGERPRINT>
10 15 18200579394420874584
10062212 137 18335978748679257403
10759866 29 17896329184780221700
11132069 177 18130788975077140454
11646440 116 18201165420679663219
11796584 16 17022901254788590035
12107183 9 17539115165349211544
12166972 35 17530686528174826389
12236239 1 17675923179688240922
12403259 226 18409727322929051580
12403259 415 17775283838046167840
12403260 363 18334573538248334984
12516196 113 17846497054493478169
12670546 56 17167855357604574876
12788726 201 18341061764859148976
12839892 36 18337940204403764090
128620 24 17561083596566145375
13140716 1 18266734877927109186
13224815 77 18410862065946255105
13533116 47 17603579699568434866
13675066 3 18060134336707191446
13862211 1 18409725184209047723
14115302 16 17822020842641785879
14178342 30 18196372516086781736
15196674 1 18410014381373218277
15375358 24 18343305868439131351
15788980 27 17312821580633543267
16945 1 18266474130145875736
17349148 13 18040437685053836355
17492 89 18336265626540898875
17862501 102 18260543407628454848
18681886 176 18411703218802455940
19141452 34 17917714638917552703
192875 21 17095530590693895437
200 152 17988926669558100657
20028762 73 18271520978680877286
20261772 1 17918273172868990966
20374829 77 18408882958423224225
20645477 70 18272657839586189735
20715895 44 18044084658387856005
21033648 29 17346017988560322248
21267235 1 18410584985169552555
21421861 104 17969781869736664179
22079108 93 15338827699011055798
23402539 116 18341323474517247271
23557571 272 18130235860572505381
23559900 14 18413114965667148732
26918003 58 18186237346629408251
2871803 45 18409451379785237493
3004659 81 18261115179418497180
3286 77 18113614595114624068
335352 9 18409730664719024061
3411729 13 18265890457983547752
345986 75 17097183092778937040
34797466 226 15841557426396431017
350125 39 18408884066425144360
351380 180 18409446994349386634
3680242 22 18335986359245015011
3886686 26 17112106570802819290
4072396 5 18409158905255181930
4214541 1 18409450263326167333
4340502 62 15339120160382085479
5104073 3 18337114574387299705
5283173 99 18188199910962165245
5374978 207 18411134757878473368
542803 24 13840264793022894975
59755656 215 18337395945942539894
67856867 119 18189052156737560036
9709674 26 18340215106798866631

> <PUBCHEM_SHAPE_MULTIPOLES>
441.01
11.23
2
1.08
4.77
0.51
0.19
-1.71
-1.65
0.44
-0.03
-1.49
-0.2
-0.03

> <PUBCHEM_SHAPE_SELFOVERLAP>
954.717

> <PUBCHEM_SHAPE_VOLUME>
241.8

> <PUBCHEM_COORDINATE_TYPE>
2
5
10

$$$$
