3702
  -OEChem-10241302533D

 40 42  0     1  0  0  0  0  0999 V2000
    5.8085   -0.5802   -0.0632 Cl  0  0  0  0  0  0  0  0  0  0  0  0
    3.7693    1.8229    0.6627 S   0  0  0  0  0  0  0  0  0  0  0  0
   -0.4949   -2.2165   -1.3957 O   0  0  0  0  0  0  0  0  0  0  0  0
    2.6958    2.4401    1.4249 O   0  0  0  0  0  0  0  0  0  0  0  0
    5.0836    1.6535    1.2612 O   0  0  0  0  0  0  0  0  0  0  0  0
   -2.2513   -0.7668    0.1711 N   0  0  1  0  0  0  0  0  0  0  0  0
   -0.8943   -0.6089    0.2300 N   0  0  0  0  0  0  0  0  0  0  0  0
    3.9406    2.6466   -0.8230 N   0  0  0  0  0  0  0  0  0  0  0  0
   -2.9572   -1.4353    1.2699 C   0  0  1  0  0  0  0  0  0  0  0  0
   -4.4318   -0.9560    1.1909 C   0  0  0  0  0  0  0  0  0  0  0  0
   -4.2971    0.2985    0.3881 C   0  0  0  0  0  0  0  0  0  0  0  0
   -3.0203    0.3568   -0.1833 C   0  0  0  0  0  0  0  0  0  0  0  0
   -2.8415   -2.9474    1.1455 C   0  0  0  0  0  0  0  0  0  0  0  0
   -5.2416    1.2854    0.1651 C   0  0  0  0  0  0  0  0  0  0  0  0
   -2.6657    1.4262   -0.9923 C   0  0  0  0  0  0  0  0  0  0  0  0
   -4.8858    2.3642   -0.6450 C   0  0  0  0  0  0  0  0  0  0  0  0
   -3.6073    2.4344   -1.2191 C   0  0  0  0  0  0  0  0  0  0  0  0
   -0.0840   -1.3803   -0.5947 C   0  0  0  0  0  0  0  0  0  0  0  0
    1.3807   -1.1677   -0.4580 C   0  0  0  0  0  0  0  0  0  0  0  0
    1.8382    0.0581   -0.0219 C   0  0  0  0  0  0  0  0  0  0  0  0
    3.2128    0.2567    0.1063 C   0  0  0  0  0  0  0  0  0  0  0  0
    2.2350   -2.2040   -0.7719 C   0  0  0  0  0  0  0  0  0  0  0  0
    4.0986   -0.7750   -0.2044 C   0  0  0  0  0  0  0  0  0  0  0  0
    3.6097   -2.0054   -0.6435 C   0  0  0  0  0  0  0  0  0  0  0  0
   -2.5328   -1.1124    2.2312 H   0  0  0  0  0  0  0  0  0  0  0  0
   -4.8375   -0.7669    2.1893 H   0  0  0  0  0  0  0  0  0  0  0  0
   -5.0708   -1.6703    0.6606 H   0  0  0  0  0  0  0  0  0  0  0  0
   -3.4174   -3.4458    1.9320 H   0  0  0  0  0  0  0  0  0  0  0  0
   -3.2110   -3.2981    0.1755 H   0  0  0  0  0  0  0  0  0  0  0  0
   -1.7984   -3.2685    1.2360 H   0  0  0  0  0  0  0  0  0  0  0  0
   -0.5645    0.0296    0.9457 H   0  0  0  0  0  0  0  0  0  0  0  0
   -6.2309    1.2269    0.6051 H   0  0  0  0  0  0  0  0  0  0  0  0
   -1.6839    1.4902   -1.4502 H   0  0  0  0  0  0  0  0  0  0  0  0
   -5.6048    3.1561   -0.8364 H   0  0  0  0  0  0  0  0  0  0  0  0
   -3.3484    3.2805   -1.8500 H   0  0  0  0  0  0  0  0  0  0  0  0
    1.1586    0.8787    0.1820 H   0  0  0  0  0  0  0  0  0  0  0  0
    1.8702   -3.1693   -1.1098 H   0  0  0  0  0  0  0  0  0  0  0  0
    4.2861   -2.8204   -0.8887 H   0  0  0  0  0  0  0  0  0  0  0  0
    3.2622    3.3870   -1.0392 H   0  0  0  0  0  0  0  0  0  0  0  0
    4.8935    2.8476   -1.1504 H   0  0  0  0  0  0  0  0  0  0  0  0
  1 23  1  0  0  0  0
  2  4  2  0  0  0  0
  2  5  2  0  0  0  0
  2  8  1  0  0  0  0
  2 21  1  0  0  0  0
  3 18  2  0  0  0  0
  6  7  1  0  0  0  0
  6  9  1  0  0  0  0
  6 12  1  0  0  0  0
  7 18  1  0  0  0  0
  7 31  1  0  0  0  0
  8 39  1  0  0  0  0
  8 40  1  0  0  0  0
  9 10  1  0  0  0  0
  9 13  1  0  0  0  0
  9 25  1  0  0  0  0
 10 11  1  0  0  0  0
 10 26  1  0  0  0  0
 10 27  1  0  0  0  0
 11 12  1  0  0  0  0
 11 14  2  0  0  0  0
 12 15  2  0  0  0  0
 13 28  1  0  0  0  0
 13 29  1  0  0  0  0
 13 30  1  0  0  0  0
 14 16  1  0  0  0  0
 14 32  1  0  0  0  0
 15 17  1  0  0  0  0
 15 33  1  0  0  0  0
 16 17  2  0  0  0  0
 16 34  1  0  0  0  0
 17 35  1  0  0  0  0
 18 19  1  0  0  0  0
 19 20  2  0  0  0  0
 19 22  1  0  0  0  0
 20 21  1  0  0  0  0
 20 36  1  0  0  0  0
 21 23  2  0  0  0  0
 22 24  2  0  0  0  0
 22 37  1  0  0  0  0
 23 24  1  0  0  0  0
 24 38  1  0  0  0  0
M  END
> <PUBCHEM_COMPOUND_CID>
3702

> <PUBCHEM_CONFORMER_RMSD>
0.8

> <PUBCHEM_CONFORMER_DIVERSEORDER>
12
22
10
6
14
28
26
31
4
18
20
23
25
27
8
16
30
7
24
13
1
19
29
11
3
21
15
5
9
17
2

> <PUBCHEM_MMFF94_PARTIAL_CHARGES>
33
1 -0.18
10 0.14
11 -0.14
12 0.1
14 -0.15
15 -0.15
16 -0.15
17 -0.15
18 0.54
19 0.09
2 1.45
20 -0.15
21 -0.01
22 -0.15
23 0.18
24 -0.15
3 -0.57
31 0.37
32 0.15
33 0.15
34 0.15
35 0.15
36 0.15
37 0.15
38 0.15
39 0.42
4 -0.65
40 0.42
5 -0.65
6 -0.49
7 -0.41
8 -0.98
9 0.37

> <PUBCHEM_EFFECTIVE_ROTOR_COUNT>
4.6

> <PUBCHEM_PHARMACOPHORE_FEATURES>
8
1 3 acceptor
1 4 acceptor
1 5 acceptor
1 7 donor
1 8 donor
5 6 9 10 11 12 rings
6 11 12 14 15 16 17 rings
6 19 20 21 22 23 24 rings

> <PUBCHEM_HEAVY_ATOM_COUNT>
24

> <PUBCHEM_ATOM_DEF_STEREO_COUNT>
0

> <PUBCHEM_ATOM_UDEF_STEREO_COUNT>
1

> <PUBCHEM_BOND_DEF_STEREO_COUNT>
0

> <PUBCHEM_BOND_UDEF_STEREO_COUNT>
0

> <PUBCHEM_ISOTOPIC_ATOM_COUNT>
0

> <PUBCHEM_COMPONENT_COUNT>
1

> <PUBCHEM_CACTVS_TAUTO_COUNT>
2

> <PUBCHEM_CONFORMER_ID>
00000E760000000C

> <PUBCHEM_MMFF94_ENERGY>
62.5348

> <PUBCHEM_FEATURE_SELFOVERLAP>
40.702

> <PUBCHEM_SHAPE_FINGERPRINT>
10319926 262 18187640302271332074
10763959 59 18341335500900131054
11045977 3 18336830801223205431
11405975 8 18333448737963773394
11595378 159 16298382418535985029
12236239 1 15913043162834771183
12403259 118 18263356048740809136
12403259 415 18411705374026504546
12422481 6 18266715005757113136
12507560 40 18409169930404445590
12596602 18 15430619314806742589
12633257 1 17167579401391775636
12769317 202 18272925003816090560
13402501 40 18410570643762464181
13583140 156 18411704278815846382
14178342 30 17748830743290996195
14251757 17 18337954489280166521
14251764 38 18339366270790024685
15961568 22 17823423871256384852
17844677 252 18261403264175673032
17868525 174 18263075514567807706
20645477 56 18261397706978641299
20681677 76 18412544318773850975
21033648 144 18342174457962517621
21033648 29 18341602733385798464
21065198 57 18334861601636435906
21065199 12 18335145314338600235
21475661 188 18335135375963248452
21709351 56 18201716262872616846
21792934 111 18114756988645319457
21792961 116 18267600013875702222
22122407 14 17560532720288410385
22289505 5 18270401586423940966
23227448 37 18272083941697794943
23557571 272 18260278446943486763
23559900 14 18189343380957638918
4371632 12 16842728794493192489
508706 21 18334570269925604069
5104073 3 18335426729591645939
5252454 2 17986678284064314760
7808743 9 17977110385841236148
9995097 60 18411700980696953994

> <PUBCHEM_SHAPE_MULTIPOLES>
467.08
12.93
3.24
1.22
2.12
0.43
0.12
5.46
1.46
-0.33
-0.03
-0.17
0.04
2.85

> <PUBCHEM_SHAPE_SELFOVERLAP>
992.299

> <PUBCHEM_SHAPE_VOLUME>
263.6

> <PUBCHEM_COORDINATE_TYPE>
2
5
10

$$$$
