123781
  -OEChem-10241303123D

 45 45  0     1  0  0  0  0  0999 V2000
   -1.5157    0.3422    1.2436 O   0  0  0  0  0  0  0  0  0  0  0  0
   -0.0150   -0.2002   -0.5041 O   0  0  0  0  0  0  0  0  0  0  0  0
   -3.6502   -2.4728   -0.9414 O   0  0  0  0  0  0  0  0  0  0  0  0
   -0.8401   -2.8417   -0.4476 O   0  0  0  0  0  0  0  0  0  0  0  0
   -4.2073   -0.7125    1.1300 O   0  0  0  0  0  0  0  0  0  0  0  0
    2.3066   -1.4814   -1.3448 O   0  0  0  0  0  0  0  0  0  0  0  0
   -2.2623    2.9585    1.5248 O   0  0  0  0  0  0  0  0  0  0  0  0
    1.8007    1.0071   -2.3452 O   0  0  0  0  0  0  0  0  0  0  0  0
    4.4721   -1.6861    0.2757 O   0  0  0  0  0  0  0  0  0  0  0  0
    5.1949    0.3267    2.0148 O   0  0  0  0  0  0  0  0  0  0  0  0
   -0.0579    2.8951   -2.0930 O   0  0  0  0  0  0  0  0  0  0  0  0
   -2.7633   -1.3864   -0.6901 C   0  0  2  0  0  0  0  0  0  0  0  0
   -1.6289   -1.8611    0.2182 C   0  0  2  0  0  0  0  0  0  0  0  0
   -3.5221   -0.2321   -0.0293 C   0  0  2  0  0  0  0  0  0  0  0  0
   -0.7368   -0.6863    0.6268 C   0  0  2  0  0  0  0  0  0  0  0  0
   -2.5453    0.8727    0.3944 C   0  0  1  0  0  0  0  0  0  0  0  0
    1.2575    0.3309   -0.1148 C   0  0  1  0  0  0  0  0  0  0  0  0
    2.2469   -0.8465   -0.0632 C   0  0  2  0  0  0  0  0  0  0  0  0
   -3.2344    1.9932    1.1658 C   0  0  0  0  0  0  0  0  0  0  0  0
    1.6260    1.5101   -1.0250 C   0  0  2  0  0  0  0  0  0  0  0  0
    3.6859   -0.4871    0.3354 C   0  0  1  0  0  0  0  0  0  0  0  0
    3.8194    0.0637    1.7511 C   0  0  0  0  0  0  0  0  0  0  0  0
    0.5692    2.5941   -1.0821 C   0  0  0  0  0  0  0  0  0  0  0  0
   -2.3628   -1.0735   -1.6612 H   0  0  0  0  0  0  0  0  0  0  0  0
   -2.0564   -2.3361    1.1101 H   0  0  0  0  0  0  0  0  0  0  0  0
   -4.2834    0.1508   -0.7187 H   0  0  0  0  0  0  0  0  0  0  0  0
   -0.0463   -1.0597    1.3919 H   0  0  0  0  0  0  0  0  0  0  0  0
   -2.0641    1.3047   -0.4914 H   0  0  0  0  0  0  0  0  0  0  0  0
    1.1631    0.7569    0.8939 H   0  0  0  0  0  0  0  0  0  0  0  0
    1.8796   -1.6266    0.6117 H   0  0  0  0  0  0  0  0  0  0  0  0
   -3.6691    1.6312    2.1022 H   0  0  0  0  0  0  0  0  0  0  0  0
   -4.0186    2.4741    0.5732 H   0  0  0  0  0  0  0  0  0  0  0  0
    2.5652    1.9714   -0.7037 H   0  0  0  0  0  0  0  0  0  0  0  0
    4.1402    0.1939   -0.3921 H   0  0  0  0  0  0  0  0  0  0  0  0
   -4.0514   -2.7312   -0.0940 H   0  0  0  0  0  0  0  0  0  0  0  0
   -0.1384   -3.1197    0.1655 H   0  0  0  0  0  0  0  0  0  0  0  0
   -4.8896   -0.0601    1.3618 H   0  0  0  0  0  0  0  0  0  0  0  0
    3.4793   -0.6639    2.4947 H   0  0  0  0  0  0  0  0  0  0  0  0
    3.2616    0.9944    1.8861 H   0  0  0  0  0  0  0  0  0  0  0  0
    2.6872   -0.8471   -1.9756 H   0  0  0  0  0  0  0  0  0  0  0  0
    0.3900    3.1239   -0.1308 H   0  0  0  0  0  0  0  0  0  0  0  0
   -1.9068    3.3372    0.7029 H   0  0  0  0  0  0  0  0  0  0  0  0
    2.1655    1.7280   -2.8866 H   0  0  0  0  0  0  0  0  0  0  0  0
    4.0958   -2.3226    0.9074 H   0  0  0  0  0  0  0  0  0  0  0  0
    5.4930    0.9940    1.3732 H   0  0  0  0  0  0  0  0  0  0  0  0
  1 15  1  0  0  0  0
  1 16  1  0  0  0  0
  2 15  1  0  0  0  0
  2 17  1  0  0  0  0
  3 12  1  0  0  0  0
  3 35  1  0  0  0  0
  4 13  1  0  0  0  0
  4 36  1  0  0  0  0
  5 14  1  0  0  0  0
  5 37  1  0  0  0  0
  6 18  1  0  0  0  0
  6 40  1  0  0  0  0
  7 19  1  0  0  0  0
  7 42  1  0  0  0  0
  8 20  1  0  0  0  0
  8 43  1  0  0  0  0
  9 21  1  0  0  0  0
  9 44  1  0  0  0  0
 10 22  1  0  0  0  0
 10 45  1  0  0  0  0
 11 23  2  0  0  0  0
 12 13  1  0  0  0  0
 12 14  1  0  0  0  0
 12 24  1  0  0  0  0
 13 15  1  0  0  0  0
 13 25  1  0  0  0  0
 14 16  1  0  0  0  0
 14 26  1  0  0  0  0
 15 27  1  0  0  0  0
 16 19  1  0  0  0  0
 16 28  1  0  0  0  0
 17 18  1  0  0  0  0
 17 20  1  0  0  0  0
 17 29  1  0  0  0  0
 18 21  1  0  0  0  0
 18 30  1  0  0  0  0
 19 31  1  0  0  0  0
 19 32  1  0  0  0  0
 20 23  1  0  0  0  0
 20 33  1  0  0  0  0
 21 22  1  0  0  0  0
 21 34  1  0  0  0  0
 22 38  1  0  0  0  0
 22 39  1  0  0  0  0
 23 41  1  0  0  0  0
M  END
> <PUBCHEM_COMPOUND_CID>
123781

> <PUBCHEM_CONFORMER_RMSD>
1

> <PUBCHEM_CONFORMER_DIVERSEORDER>
1
11
101
66
57
81
87
98
35
68
76
34
27
67
91
59
4
95
24
49
33
43
86
52
20
51
54
73
44
72
90
45
60
70
103
71
56
97
82
61
5
105
46
26
58
96
100
14
38
84
23
62
18
53
83
102
55
13
48
50
79
21
41
19
15
92
36
10
16
75
104
89
40
78
47
6
80
29
69
64
3
17
88
85
74
22
93
63
25
7
32
12
65
2
37
31
39
9
30
42
94
99
28
8
77

> <PUBCHEM_MMFF94_PARTIAL_CHARGES>
32
1 -0.56
10 -0.68
11 -0.57
12 0.28
13 0.28
14 0.28
15 0.56
16 0.28
17 0.28
18 0.28
19 0.28
2 -0.56
20 0.34
21 0.28
22 0.28
23 0.45
3 -0.68
35 0.4
36 0.4
37 0.4
4 -0.68
40 0.4
41 0.06
42 0.4
43 0.4
44 0.4
45 0.4
5 -0.68
6 -0.68
7 -0.68
8 -0.68
9 -0.68

> <PUBCHEM_EFFECTIVE_ROTOR_COUNT>
9.2

> <PUBCHEM_PHARMACOPHORE_FEATURES>
20
1 1 acceptor
1 10 acceptor
1 10 donor
1 11 acceptor
1 2 acceptor
1 3 acceptor
1 3 donor
1 4 acceptor
1 4 donor
1 5 acceptor
1 5 donor
1 6 acceptor
1 6 donor
1 7 acceptor
1 7 donor
1 8 acceptor
1 8 donor
1 9 acceptor
1 9 donor
6 1 12 13 14 15 16 rings

> <PUBCHEM_HEAVY_ATOM_COUNT>
23

> <PUBCHEM_ATOM_DEF_STEREO_COUNT>
9

> <PUBCHEM_ATOM_UDEF_STEREO_COUNT>
0

> <PUBCHEM_BOND_DEF_STEREO_COUNT>
0

> <PUBCHEM_BOND_UDEF_STEREO_COUNT>
0

> <PUBCHEM_ISOTOPIC_ATOM_COUNT>
0

> <PUBCHEM_COMPONENT_COUNT>
1

> <PUBCHEM_CACTVS_TAUTO_COUNT>
4

> <PUBCHEM_CONFORMER_ID>
0001E38500000001

> <PUBCHEM_MMFF94_ENERGY>
59.4926

> <PUBCHEM_FEATURE_SELFOVERLAP>
101.631

> <PUBCHEM_SHAPE_FINGERPRINT>
11370993 70 17988355953961092418
12553582 1 17894634725650587962
12633257 1 18127400156308815162
12892183 10 18201429286179858946
13009979 54 18338244854738627873
13134695 92 17750221672770659852
13140716 1 18261969452661471321
13296909 8 18272647926717300313
13583140 156 16126933384600149562
13965767 371 17833279618535696953
14142880 1 18264764373002350713
14178342 30 18413111632250677114
16945 1 18130238098777831311
17349148 13 18337389447535207730
17980427 23 18200868607747308845
1813 80 17531248323298885902
192875 21 18409727408796339903
22112679 90 18261122850156416732
23175994 123 16081082645767491498
23402539 116 18272077310621743463
23419403 2 17837167757892174373
23557571 272 17632311106648935473
23559900 14 17846232012008868604
23598291 2 18335147526230608662
2748010 2 17035014303919575893
6992083 37 18335710411896676893
7064713 232 18197507233472078617
74978 22 17968949719606882970
7615 1 18336839683210389701
81228 2 17970633991527641236
90316 7 18042115484327562804
9862522 239 17899127213992127685
9981440 41 17252589482928952424

> <PUBCHEM_SHAPE_MULTIPOLES>
408.77
7.9
2.98
1.76
4.52
1.04
-0.15
-2.33
3.9
-1.86
-0.92
1.02
1.02
-1.31

> <PUBCHEM_SHAPE_SELFOVERLAP>
818.377

> <PUBCHEM_SHAPE_VOLUME>
236.9

> <PUBCHEM_COORDINATE_TYPE>
2
5
10

$$$$
