12656625
  -OEChem-10241303103D

 14 13  0     0  0  0  0  0  0999 V2000
   -2.7384   -1.3823   -0.9072 Br  0  0  0  0  0  0  0  0  0  0  0  0
    0.8375    2.4525   -0.2986 N   0  0  0  0  0  0  0  0  0  0  0  0
    3.0070   -1.2845    0.2631 N   0  0  0  0  0  0  0  0  0  0  0  0
   -0.3986   -0.6965    0.6062 C   0  0  0  0  0  0  0  0  0  0  0  0
    0.6941   -0.1793   -0.3550 C   0  0  0  0  0  0  0  0  0  0  0  0
   -1.7983   -0.2530    0.2536 C   0  0  0  0  0  0  0  0  0  0  0  0
    0.7754    1.2939   -0.3215 C   0  0  0  0  0  0  0  0  0  0  0  0
    1.9894   -0.7967   -0.0077 C   0  0  0  0  0  0  0  0  0  0  0  0
   -2.3681    0.8458    0.7671 C   0  0  0  0  0  0  0  0  0  0  0  0
   -0.1684   -0.3647    1.6302 H   0  0  0  0  0  0  0  0  0  0  0  0
   -0.3643   -1.7940    0.6564 H   0  0  0  0  0  0  0  0  0  0  0  0
    0.4387   -0.4861   -1.3776 H   0  0  0  0  0  0  0  0  0  0  0  0
   -3.3831    1.1343    0.5138 H   0  0  0  0  0  0  0  0  0  0  0  0
   -1.8305    1.4855    1.4593 H   0  0  0  0  0  0  0  0  0  0  0  0
  1  6  1  0  0  0  0
  2  7  3  0  0  0  0
  3  8  3  0  0  0  0
  4  5  1  0  0  0  0
  4  6  1  0  0  0  0
  4 10  1  0  0  0  0
  4 11  1  0  0  0  0
  5  7  1  0  0  0  0
  5  8  1  0  0  0  0
  5 12  1  0  0  0  0
  6  9  2  0  0  0  0
  9 13  1  0  0  0  0
  9 14  1  0  0  0  0
M  END
> <PUBCHEM_COMPOUND_CID>
12656625

> <PUBCHEM_CONFORMER_RMSD>
0.4

> <PUBCHEM_CONFORMER_DIVERSEORDER>
1
6
12
14
2
5
16
15
8
10
9
13
7
4
3
11

> <PUBCHEM_MMFF94_PARTIAL_CHARGES>
11
1 -0.11
13 0.15
14 0.15
2 -0.56
3 -0.56
4 0.14
5 0.4
6 -0.03
7 0.36
8 0.36
9 -0.3

> <PUBCHEM_EFFECTIVE_ROTOR_COUNT>
2

> <PUBCHEM_PHARMACOPHORE_FEATURES>
3
1 1 hydrophobe
1 2 acceptor
1 3 acceptor

> <PUBCHEM_HEAVY_ATOM_COUNT>
9

> <PUBCHEM_ATOM_DEF_STEREO_COUNT>
0

> <PUBCHEM_ATOM_UDEF_STEREO_COUNT>
0

> <PUBCHEM_BOND_DEF_STEREO_COUNT>
0

> <PUBCHEM_BOND_UDEF_STEREO_COUNT>
0

> <PUBCHEM_ISOTOPIC_ATOM_COUNT>
0

> <PUBCHEM_COMPONENT_COUNT>
1

> <PUBCHEM_CACTVS_TAUTO_COUNT>
1

> <PUBCHEM_CONFORMER_ID>
00C11FF100000001

> <PUBCHEM_MMFF94_ENERGY>
7.2989

> <PUBCHEM_FEATURE_SELFOVERLAP>
15.223

> <PUBCHEM_SHAPE_FINGERPRINT>
12897270 3 17910114943052187037
12932741 1 17241043331300416627
14128692 85 18201437020978115343
20653091 64 18337954600906819042
23552423 10 18339641273498459407
5084963 1 18341889723195325955
9939556 21 18341894130079607111

> <PUBCHEM_SHAPE_MULTIPOLES>
181.2
4.12
1.95
0.89
0.42
0.97
0.02
-1.86
0.17
-0.63
0.26
0.4
-0.03
-0.83

> <PUBCHEM_SHAPE_SELFOVERLAP>
330.667

> <PUBCHEM_SHAPE_VOLUME>
115.5

> <PUBCHEM_COORDINATE_TYPE>
2
5
10

$$$$
