70007
  -OEChem-10241303003D

 12 12  0     0  0  0  0  0  0999 V2000
   -2.7404    1.7247    0.0000 Br  0  0  0  0  0  0  0  0  0  0  0  0
   -2.7402   -1.7251    0.0002 Br  0  0  0  0  0  0  0  0  0  0  0  0
    0.0949    2.7357   -0.0001 F   0  0  0  0  0  0  0  0  0  0  0  0
    0.0952   -2.7357   -0.0002 F   0  0  0  0  0  0  0  0  0  0  0  0
    2.4373    1.3670    0.0000 F   0  0  0  0  0  0  0  0  0  0  0  0
    2.4374   -1.3667    0.0000 F   0  0  0  0  0  0  0  0  0  0  0  0
   -1.1388    0.6975    0.0000 C   0  0  0  0  0  0  0  0  0  0  0  0
   -1.1387   -0.6975    0.0000 C   0  0  0  0  0  0  0  0  0  0  0  0
    0.0692    1.3949    0.0000 C   0  0  0  0  0  0  0  0  0  0  0  0
    0.0694   -1.3948    0.0000 C   0  0  0  0  0  0  0  0  0  0  0  0
    1.2773    0.6974    0.0000 C   0  0  0  0  0  0  0  0  0  0  0  0
    1.2774   -0.6974    0.0001 C   0  0  0  0  0  0  0  0  0  0  0  0
  1  7  1  0  0  0  0
  2  8  1  0  0  0  0
  3  9  1  0  0  0  0
  4 10  1  0  0  0  0
  5 11  1  0  0  0  0
  6 12  1  0  0  0  0
  7  8  1  0  0  0  0
  7  9  2  0  0  0  0
  8 10  2  0  0  0  0
  9 11  1  0  0  0  0
 10 12  1  0  0  0  0
 11 12  2  0  0  0  0
M  END
> <PUBCHEM_COMPOUND_CID>
70007

> <PUBCHEM_CONFORMER_RMSD>
0.4

> <PUBCHEM_CONFORMER_DIVERSEORDER>
1

> <PUBCHEM_MMFF94_PARTIAL_CHARGES>
12
1 -0.11
10 0.19
11 0.19
12 0.19
2 -0.11
3 -0.19
4 -0.19
5 -0.19
6 -0.19
7 0.11
8 0.11
9 0.19

> <PUBCHEM_EFFECTIVE_ROTOR_COUNT>
0

> <PUBCHEM_PHARMACOPHORE_FEATURES>
3
1 1 hydrophobe
1 2 hydrophobe
6 7 8 9 10 11 12 rings

> <PUBCHEM_HEAVY_ATOM_COUNT>
12

> <PUBCHEM_ATOM_DEF_STEREO_COUNT>
0

> <PUBCHEM_ATOM_UDEF_STEREO_COUNT>
0

> <PUBCHEM_BOND_DEF_STEREO_COUNT>
0

> <PUBCHEM_BOND_UDEF_STEREO_COUNT>
0

> <PUBCHEM_ISOTOPIC_ATOM_COUNT>
0

> <PUBCHEM_COMPONENT_COUNT>
1

> <PUBCHEM_CACTVS_TAUTO_COUNT>
1

> <PUBCHEM_CONFORMER_ID>
0001117700000001

> <PUBCHEM_MMFF94_ENERGY>
18.2581

> <PUBCHEM_FEATURE_SELFOVERLAP>
15.223

> <PUBCHEM_SHAPE_FINGERPRINT>
10967382 1 18122343484635585381
11206711 2 18265618860687176341
13140716 1 18410854317672136281
16945 1 18122343471608284685
193761 8 18410855464602470663
20588541 1 18123754145116522023
21040471 1 18410574028249044512
21501502 16 18410012139300017509
2334 1 18410574019553387525
23526114 1 18410857663504413565
23552423 10 18333734610786417830
23559900 14 18198912410176239478
241688 4 18410575054640538683
2748010 2 18411138034637605855
5084963 1 17986963044632646691
528886 8 18339356349314623249
66348 1 18410854347953184727

> <PUBCHEM_SHAPE_MULTIPOLES>
229.74
3.46
2.9
0.61
0.71
0
0
0
0
0.66
0
0.12
0
0

> <PUBCHEM_SHAPE_SELFOVERLAP>
462.076

> <PUBCHEM_SHAPE_VOLUME>
139.5

> <PUBCHEM_COORDINATE_TYPE>
2
5
10

$$$$
