10039975
  -OEChem-10241302463D

 38 40  0     0  0  0  0  0  0999 V2000
    1.9719   -3.5929    0.0964 O   0  0  0  0  0  0  0  0  0  0  0  0
    0.4321   -2.5384   -1.2010 O   0  0  0  0  0  0  0  0  0  0  0  0
    0.1786    0.0353   -0.3043 N   0  0  0  0  0  0  0  0  0  0  0  0
    1.6097    2.2948    0.3533 N   0  0  0  0  0  0  0  0  0  0  0  0
   -1.8002    1.3369   -0.4791 C   0  0  0  0  0  0  0  0  0  0  0  0
   -0.4342    1.2272   -0.2275 C   0  0  0  0  0  0  0  0  0  0  0  0
   -2.6039    0.1266   -0.8389 C   0  0  0  0  0  0  0  0  0  0  0  0
    0.2926    2.3747    0.1064 C   0  0  0  0  0  0  0  0  0  0  0  0
    1.4957   -0.0446   -0.0575 C   0  0  0  0  0  0  0  0  0  0  0  0
    2.2224    1.1028    0.2764 C   0  0  0  0  0  0  0  0  0  0  0  0
   -2.4541    2.5653   -0.4044 C   0  0  0  0  0  0  0  0  0  0  0  0
   -0.3669    3.5999    0.1795 C   0  0  0  0  0  0  0  0  0  0  0  0
   -3.1830   -0.5686    0.3665 C   0  0  0  0  0  0  0  0  0  0  0  0
    2.1553   -1.2698   -0.1307 C   0  0  0  0  0  0  0  0  0  0  0  0
   -1.7335    3.7030   -0.0732 C   0  0  0  0  0  0  0  0  0  0  0  0
    3.5885    0.9931    0.5281 C   0  0  0  0  0  0  0  0  0  0  0  0
   -3.4275   -1.8830    0.5285 C   0  0  0  0  0  0  0  0  0  0  0  0
    3.5219   -1.3729    0.1220 C   0  0  0  0  0  0  0  0  0  0  0  0
    4.2424   -0.2353    0.4532 C   0  0  0  0  0  0  0  0  0  0  0  0
   -4.0092   -2.5118    1.7628 C   0  0  0  0  0  0  0  0  0  0  0  0
   -3.1266   -2.8560   -0.5806 C   0  0  0  0  0  0  0  0  0  0  0  0
    1.4278   -2.4861   -0.4759 C   0  0  0  0  0  0  0  0  0  0  0  0
   -3.4363    0.4297   -1.4880 H   0  0  0  0  0  0  0  0  0  0  0  0
   -1.9911   -0.5427   -1.4511 H   0  0  0  0  0  0  0  0  0  0  0  0
   -3.5198    2.6468   -0.5992 H   0  0  0  0  0  0  0  0  0  0  0  0
    0.1879    4.4995    0.4385 H   0  0  0  0  0  0  0  0  0  0  0  0
   -3.4516    0.0828    1.1984 H   0  0  0  0  0  0  0  0  0  0  0  0
   -2.2289    4.6669   -0.0104 H   0  0  0  0  0  0  0  0  0  0  0  0
    4.1646    1.8789    0.7880 H   0  0  0  0  0  0  0  0  0  0  0  0
    4.0521   -2.3188    0.0546 H   0  0  0  0  0  0  0  0  0  0  0  0
    5.3083   -0.2987    0.6496 H   0  0  0  0  0  0  0  0  0  0  0  0
   -4.1960   -1.7677    2.5440 H   0  0  0  0  0  0  0  0  0  0  0  0
   -4.9610   -3.0006    1.5319 H   0  0  0  0  0  0  0  0  0  0  0  0
   -3.3204   -3.2588    2.1704 H   0  0  0  0  0  0  0  0  0  0  0  0
   -2.9545   -2.3925   -1.5541 H   0  0  0  0  0  0  0  0  0  0  0  0
   -2.2474   -3.4558   -0.3237 H   0  0  0  0  0  0  0  0  0  0  0  0
   -3.9735   -3.5383   -0.7167 H   0  0  0  0  0  0  0  0  0  0  0  0
    1.4780   -4.4068   -0.1403 H   0  0  0  0  0  0  0  0  0  0  0  0
  1 22  1  0  0  0  0
  1 38  1  0  0  0  0
  2 22  2  0  0  0  0
  3  6  1  0  0  0  0
  3  9  2  0  0  0  0
  4  8  1  0  0  0  0
  4 10  2  0  0  0  0
  5  6  2  0  0  0  0
  5  7  1  0  0  0  0
  5 11  1  0  0  0  0
  6  8  1  0  0  0  0
  7 13  1  0  0  0  0
  7 23  1  0  0  0  0
  7 24  1  0  0  0  0
  8 12  2  0  0  0  0
  9 10  1  0  0  0  0
  9 14  1  0  0  0  0
 10 16  1  0  0  0  0
 11 15  2  0  0  0  0
 11 25  1  0  0  0  0
 12 15  1  0  0  0  0
 12 26  1  0  0  0  0
 13 17  2  0  0  0  0
 13 27  1  0  0  0  0
 14 18  2  0  0  0  0
 14 22  1  0  0  0  0
 15 28  1  0  0  0  0
 16 19  2  0  0  0  0
 16 29  1  0  0  0  0
 17 20  1  0  0  0  0
 17 21  1  0  0  0  0
 18 19  1  0  0  0  0
 18 30  1  0  0  0  0
 19 31  1  0  0  0  0
 20 32  1  0  0  0  0
 20 33  1  0  0  0  0
 20 34  1  0  0  0  0
 21 35  1  0  0  0  0
 21 36  1  0  0  0  0
 21 37  1  0  0  0  0
M  END
> <PUBCHEM_COMPOUND_CID>
10039975

> <PUBCHEM_CONFORMER_RMSD>
0.6

> <PUBCHEM_CONFORMER_DIVERSEORDER>
1
12
10
3
16
13
4
7
9
8
14
5
2
6
11
15

> <PUBCHEM_MMFF94_PARTIAL_CHARGES>
30
1 -0.65
10 0.31
11 -0.15
12 -0.15
13 -0.29
14 0.09
15 -0.15
16 -0.15
17 -0.28
18 -0.15
19 -0.15
2 -0.57
20 0.14
21 0.14
22 0.63
25 0.15
26 0.15
27 0.15
28 0.15
29 0.15
3 -0.62
30 0.15
31 0.15
38 0.5
4 -0.62
5 -0.14
6 0.31
7 0.28
8 0.31
9 0.31

> <PUBCHEM_EFFECTIVE_ROTOR_COUNT>
3

> <PUBCHEM_PHARMACOPHORE_FEATURES>
9
1 1 acceptor
1 2 acceptor
1 3 acceptor
1 4 acceptor
3 1 2 22 anion
3 17 20 21 hydrophobe
6 3 4 6 8 9 10 rings
6 5 6 8 11 12 15 rings
6 9 10 14 16 18 19 rings

> <PUBCHEM_HEAVY_ATOM_COUNT>
22

> <PUBCHEM_ATOM_DEF_STEREO_COUNT>
0

> <PUBCHEM_ATOM_UDEF_STEREO_COUNT>
0

> <PUBCHEM_BOND_DEF_STEREO_COUNT>
0

> <PUBCHEM_BOND_UDEF_STEREO_COUNT>
0

> <PUBCHEM_ISOTOPIC_ATOM_COUNT>
0

> <PUBCHEM_COMPONENT_COUNT>
1

> <PUBCHEM_CACTVS_TAUTO_COUNT>
1

> <PUBCHEM_CONFORMER_ID>
009932A700000001

> <PUBCHEM_MMFF94_ENERGY>
66.1527

> <PUBCHEM_FEATURE_SELFOVERLAP>
45.811

> <PUBCHEM_SHAPE_FINGERPRINT>
10616163 171 18339640027873287812
10906281 52 18341899541775947237
10967382 1 17909260287420687868
1100329 8 17330275481453192120
11578080 2 16914498209200163657
12506688 2 18410857680879597953
12553582 1 18338810021280568711
12769317 202 15027212183832482718
13140716 1 18413386553165621944
138480 1 15745285944973044989
14178342 30 18265042549243516784
14223421 5 18340768135256241942
14251705 54 18409732888937174091
14251757 5 17404042326588705854
14787075 74 17897725598806943696
14790565 3 17111290170139277533
16945 1 18124596384172544668
17859628 97 16967453686779892809
19591789 44 18267866275502912236
20028762 73 17697882823049953255
20261772 1 18199187467517059718
20645477 70 17758381256462133599
20739085 24 18119828047135040033
21796203 349 17902255607893117808
221490 88 18339927009399251806
22182313 1 18130791093192616406
2334 1 18340760537591295500
23558518 356 18122342376734951069
23559900 14 17908974410539971898
2748010 2 18341316860368078540
335352 9 17045133096856514860
3421961 26 18048040958937819353
5309563 4 18265335182592988475
6443956 14 18264771137612265045
8809292 202 17979072678508553150
9709674 26 18125435315554136014

> <PUBCHEM_SHAPE_MULTIPOLES>
431.05
6.77
4.91
0.94
0
1.16
-0.15
-4.52
-1.85
2.26
0.07
0.68
-0.5
1.15

> <PUBCHEM_SHAPE_SELFOVERLAP>
951.732

> <PUBCHEM_SHAPE_VOLUME>
231.4

> <PUBCHEM_COORDINATE_TYPE>
2
5
10

$$$$
