3694855
  -OEChem-10241303073D

 62 64  0     0  0  0  0  0  0999 V2000
    2.4131    4.9996   -0.7753 Cl  0  0  0  0  0  0  0  0  0  0  0  0
    0.3276   -4.4171   -0.2381 S   0  0  0  0  0  0  0  0  0  0  0  0
   -1.6262    2.2649   -0.3527 F   0  0  0  0  0  0  0  0  0  0  0  0
   -1.5984    0.5992    1.8423 O   0  0  0  0  0  0  0  0  0  0  0  0
    2.2014   -2.5113   -1.8881 O   0  0  0  0  0  0  0  0  0  0  0  0
    2.0996   -0.0926    0.8517 O   0  0  0  0  0  0  0  0  0  0  0  0
   -1.0616   -2.4439    1.0253 N   0  0  0  0  0  0  0  0  0  0  0  0
    0.2748   -1.8674    2.6591 N   0  0  0  0  0  0  0  0  0  0  0  0
    0.8800   -2.8764    1.9368 N   0  0  0  0  0  0  0  0  0  0  0  0
    3.4051   -2.3945    0.0926 N   0  0  0  0  0  0  0  0  0  0  0  0
    3.8888   -1.1385   -0.1821 N   0  0  0  0  0  0  0  0  0  0  0  0
   -2.1132   -1.5387   -1.0620 C   0  0  0  0  0  0  0  0  0  0  0  0
   -3.3478   -1.4902   -1.9688 C   0  0  0  0  0  0  0  0  0  0  0  0
   -2.2218   -2.4782    0.1427 C   0  0  0  0  0  0  0  0  0  0  0  0
   -3.2174   -0.4902   -3.1198 C   0  0  0  0  0  0  0  0  0  0  0  0
   -4.4335   -0.5513   -4.0450 C   0  0  0  0  0  0  0  0  0  0  0  0
   -0.8874   -1.6223    2.0974 C   0  0  0  0  0  0  0  0  0  0  0  0
    0.0637   -3.2084    0.9622 C   0  0  0  0  0  0  0  0  0  0  0  0
   -4.2916    0.4087   -5.2156 C   0  0  0  0  0  0  0  0  0  0  0  0
   -1.8853   -0.6236    2.5211 C   0  0  0  0  0  0  0  0  0  0  0  0
    2.1377   -4.3841   -0.3903 C   0  0  0  0  0  0  0  0  0  0  0  0
   -2.6560    1.4364    1.6167 C   0  0  0  0  0  0  0  0  0  0  0  0
    2.5664   -3.0023   -0.8212 C   0  0  0  0  0  0  0  0  0  0  0  0
   -2.6584    2.2746    0.5017 C   0  0  0  0  0  0  0  0  0  0  0  0
   -3.7332    1.4515    2.5027 C   0  0  0  0  0  0  0  0  0  0  0  0
   -3.7380    3.1277    0.2728 C   0  0  0  0  0  0  0  0  0  0  0  0
   -4.8129    2.3045    2.2738 C   0  0  0  0  0  0  0  0  0  0  0  0
   -4.8152    3.1426    1.1589 C   0  0  0  0  0  0  0  0  0  0  0  0
    3.1631   -0.0406    0.2392 C   0  0  0  0  0  0  0  0  0  0  0  0
    3.7385    1.2841   -0.1103 C   0  0  0  0  0  0  0  0  0  0  0  0
    2.9027    2.3907   -0.2608 C   0  0  0  0  0  0  0  0  0  0  0  0
    5.1151    1.4204   -0.2893 C   0  0  0  0  0  0  0  0  0  0  0  0
    3.4437    3.6336   -0.5900 C   0  0  0  0  0  0  0  0  0  0  0  0
    5.6561    2.6632   -0.6185 C   0  0  0  0  0  0  0  0  0  0  0  0
    4.8203    3.7697   -0.7689 C   0  0  0  0  0  0  0  0  0  0  0  0
   -1.2436   -1.8297   -1.6652 H   0  0  0  0  0  0  0  0  0  0  0  0
   -1.8999   -0.5239   -0.7078 H   0  0  0  0  0  0  0  0  0  0  0  0
   -4.2258   -1.2306   -1.3646 H   0  0  0  0  0  0  0  0  0  0  0  0
   -3.5261   -2.4942   -2.3730 H   0  0  0  0  0  0  0  0  0  0  0  0
   -2.3594   -3.5112   -0.1950 H   0  0  0  0  0  0  0  0  0  0  0  0
   -3.1137   -2.2471    0.7311 H   0  0  0  0  0  0  0  0  0  0  0  0
   -2.3090   -0.7115   -3.6932 H   0  0  0  0  0  0  0  0  0  0  0  0
   -3.1062    0.5233   -2.7158 H   0  0  0  0  0  0  0  0  0  0  0  0
   -5.3412   -0.3038   -3.4825 H   0  0  0  0  0  0  0  0  0  0  0  0
   -4.5581   -1.5696   -4.4313 H   0  0  0  0  0  0  0  0  0  0  0  0
   -5.1724    0.3504   -5.8627 H   0  0  0  0  0  0  0  0  0  0  0  0
   -3.4106    0.1655   -5.8181 H   0  0  0  0  0  0  0  0  0  0  0  0
   -4.1946    1.4414   -4.8658 H   0  0  0  0  0  0  0  0  0  0  0  0
   -2.9031   -0.9840    2.3433 H   0  0  0  0  0  0  0  0  0  0  0  0
   -1.7757   -0.4507    3.5988 H   0  0  0  0  0  0  0  0  0  0  0  0
    2.4510   -5.0988   -1.1573 H   0  0  0  0  0  0  0  0  0  0  0  0
    2.5971   -4.6833    0.5566 H   0  0  0  0  0  0  0  0  0  0  0  0
   -3.7587    0.8389    3.3989 H   0  0  0  0  0  0  0  0  0  0  0  0
    3.7014   -2.8161    0.9664 H   0  0  0  0  0  0  0  0  0  0  0  0
   -3.7394    3.7800   -0.5954 H   0  0  0  0  0  0  0  0  0  0  0  0
   -5.6487    2.3217    2.9672 H   0  0  0  0  0  0  0  0  0  0  0  0
   -5.6550    3.8080    0.9814 H   0  0  0  0  0  0  0  0  0  0  0  0
    4.7388   -1.1024   -0.7335 H   0  0  0  0  0  0  0  0  0  0  0  0
    1.8279    2.2887   -0.1270 H   0  0  0  0  0  0  0  0  0  0  0  0
    5.8027    0.5908   -0.1542 H   0  0  0  0  0  0  0  0  0  0  0  0
    6.7285    2.7712   -0.7516 H   0  0  0  0  0  0  0  0  0  0  0  0
    5.2560    4.7323   -1.0241 H   0  0  0  0  0  0  0  0  0  0  0  0
  1 33  1  0  0  0  0
  2 18  1  0  0  0  0
  2 21  1  0  0  0  0
  3 24  1  0  0  0  0
  4 20  1  0  0  0  0
  4 22  1  0  0  0  0
  5 23  2  0  0  0  0
  6 29  2  0  0  0  0
  7 14  1  0  0  0  0
  7 17  1  0  0  0  0
  7 18  1  0  0  0  0
  8  9  1  0  0  0  0
  8 17  2  0  0  0  0
  9 18  2  0  0  0  0
 10 11  1  0  0  0  0
 10 23  1  0  0  0  0
 10 54  1  0  0  0  0
 11 29  1  0  0  0  0
 11 58  1  0  0  0  0
 12 13  1  0  0  0  0
 12 14  1  0  0  0  0
 12 36  1  0  0  0  0
 12 37  1  0  0  0  0
 13 15  1  0  0  0  0
 13 38  1  0  0  0  0
 13 39  1  0  0  0  0
 14 40  1  0  0  0  0
 14 41  1  0  0  0  0
 15 16  1  0  0  0  0
 15 42  1  0  0  0  0
 15 43  1  0  0  0  0
 16 19  1  0  0  0  0
 16 44  1  0  0  0  0
 16 45  1  0  0  0  0
 17 20  1  0  0  0  0
 19 46  1  0  0  0  0
 19 47  1  0  0  0  0
 19 48  1  0  0  0  0
 20 49  1  0  0  0  0
 20 50  1  0  0  0  0
 21 23  1  0  0  0  0
 21 51  1  0  0  0  0
 21 52  1  0  0  0  0
 22 24  1  0  0  0  0
 22 25  2  0  0  0  0
 24 26  2  0  0  0  0
 25 27  1  0  0  0  0
 25 53  1  0  0  0  0
 26 28  1  0  0  0  0
 26 55  1  0  0  0  0
 27 28  2  0  0  0  0
 27 56  1  0  0  0  0
 28 57  1  0  0  0  0
 29 30  1  0  0  0  0
 30 31  2  0  0  0  0
 30 32  1  0  0  0  0
 31 33  1  0  0  0  0
 31 59  1  0  0  0  0
 32 34  2  0  0  0  0
 32 60  1  0  0  0  0
 33 35  2  0  0  0  0
 34 35  1  0  0  0  0
 34 61  1  0  0  0  0
 35 62  1  0  0  0  0
M  END
> <PUBCHEM_COMPOUND_CID>
3694855

> <PUBCHEM_CONFORMER_RMSD>
1.6

> <PUBCHEM_CONFORMER_DIVERSEORDER>
3
35
85
88
27
42
18
78
21
39
68
16
46
11
57
22
91
45
30
36
34
52
80
29
41
28
82
62
72
7
63
2
84
83
81
55
43
20
87
54
48
95
50
56
24
58
37
33
13
71
86
66
90
65
26
1
60
4
69
31
92
70
23
14
53
61
97
10
49
64
44
8
74
38
15
32
77
96
12
89
75
73
5
40
25
94
59
9
79
51
19
98
47
17
67
93
76
6

> <PUBCHEM_MMFF94_PARTIAL_CHARGES>
40
1 -0.18
10 -0.43
11 -0.43
14 0.26
17 0.01
18 0.24
2 -0.29
20 0.46
21 0.29
22 0.08
23 0.57
24 0.19
25 -0.15
26 -0.15
27 -0.15
28 -0.15
29 0.54
3 -0.19
30 0.09
31 -0.15
32 -0.15
33 0.18
34 -0.15
35 -0.15
4 -0.36
5 -0.57
53 0.15
54 0.37
55 0.15
56 0.15
57 0.15
58 0.37
59 0.15
6 -0.57
60 0.15
61 0.15
62 0.15
7 0.05
8 -0.34
9 -0.34

> <PUBCHEM_EFFECTIVE_ROTOR_COUNT>
15

> <PUBCHEM_PHARMACOPHORE_FEATURES>
12
1 10 donor
1 11 donor
1 19 hydrophobe
1 4 acceptor
1 5 acceptor
1 6 acceptor
3 7 8 17 cation
3 7 9 18 cation
4 12 13 15 16 hydrophobe
5 7 8 9 17 18 rings
6 22 24 25 26 27 28 rings
6 30 31 32 33 34 35 rings

> <PUBCHEM_HEAVY_ATOM_COUNT>
35

> <PUBCHEM_ATOM_DEF_STEREO_COUNT>
0

> <PUBCHEM_ATOM_UDEF_STEREO_COUNT>
0

> <PUBCHEM_BOND_DEF_STEREO_COUNT>
0

> <PUBCHEM_BOND_UDEF_STEREO_COUNT>
0

> <PUBCHEM_ISOTOPIC_ATOM_COUNT>
0

> <PUBCHEM_COMPONENT_COUNT>
1

> <PUBCHEM_CACTVS_TAUTO_COUNT>
4

> <PUBCHEM_CONFORMER_ID>
0038610700000003

> <PUBCHEM_MMFF94_ENERGY>
64.9272

> <PUBCHEM_FEATURE_SELFOVERLAP>
64.936

> <PUBCHEM_SHAPE_FINGERPRINT>
11479125 193 18114728362061317317
13761468 95 17616834553113033556
14289585 56 17046556972740733799
15444296 7 17702099171311756807
20764821 26 18409172082610237924
3027735 51 18200598132424248115
50150288 127 17560815337615215769
6036956 94 17542520769304209253
6608658 132 16897113006383511572

> <PUBCHEM_SHAPE_MULTIPOLES>
676.22
10.86
6.93
3.74
5.69
0.59
4.64
-12.07
4.93
4.31
-0.42
-8.81
0.16
-3.39

> <PUBCHEM_SHAPE_SELFOVERLAP>
1392.621

> <PUBCHEM_SHAPE_VOLUME>
392.3

> <PUBCHEM_COORDINATE_TYPE>
2
5
10

$$$$
