53436211
  -OEChem-10241302553D

 14 13  0     0  0  0  0  0  0999 V2000
    4.2039    0.2027   -0.0073 Cl  0  0  0  0  0  0  0  0  0  0  0  0
   -3.2513    0.7519   -0.0118 O   0  0  0  0  0  0  0  0  0  0  0  0
   -2.2531   -1.2931    0.0006 O   0  0  0  0  0  0  0  0  0  0  0  0
    0.2334   -0.1467    0.0128 N   0  0  0  0  0  0  0  0  0  0  0  0
   -0.9066    0.7359    0.0053 C   0  0  0  0  0  0  0  0  0  0  0  0
   -2.1730   -0.0737   -0.0019 C   0  0  0  0  0  0  0  0  0  0  0  0
    1.5211    0.2851    0.0134 C   0  0  0  0  0  0  0  0  0  0  0  0
    2.6256   -0.4622   -0.0110 C   0  0  0  0  0  0  0  0  0  0  0  0
   -0.8896    1.3638   -0.8919 H   0  0  0  0  0  0  0  0  0  0  0  0
   -0.9005    1.3650    0.9018 H   0  0  0  0  0  0  0  0  0  0  0  0
    0.0831   -1.1506   -0.0062 H   0  0  0  0  0  0  0  0  0  0  0  0
    1.5977    1.3684    0.0339 H   0  0  0  0  0  0  0  0  0  0  0  0
    2.6284   -1.5439   -0.0338 H   0  0  0  0  0  0  0  0  0  0  0  0
   -4.0950    0.2513   -0.0166 H   0  0  0  0  0  0  0  0  0  0  0  0
  1  8  1  0  0  0  0
  2  6  1  0  0  0  0
  2 14  1  0  0  0  0
  3  6  2  0  0  0  0
  4  5  1  0  0  0  0
  4  7  1  0  0  0  0
  4 11  1  0  0  0  0
  5  6  1  0  0  0  0
  5  9  1  0  0  0  0
  5 10  1  0  0  0  0
  7  8  2  0  0  0  0
  7 12  1  0  0  0  0
  8 13  1  0  0  0  0
M  END
> <PUBCHEM_COMPOUND_CID>
53436211

> <PUBCHEM_CONFORMER_RMSD>
0.6

> <PUBCHEM_CONFORMER_DIVERSEORDER>
1
5
3
6
7
2
4

> <PUBCHEM_MMFF94_PARTIAL_CHARGES>
12
1 -0.14
11 0.4
12 0.15
13 0.15
14 0.5
2 -0.65
3 -0.57
4 -0.87
5 0.43
6 0.66
7 -0.05
8 -0.01

> <PUBCHEM_EFFECTIVE_ROTOR_COUNT>
3

> <PUBCHEM_PHARMACOPHORE_FEATURES>
5
1 2 acceptor
1 3 acceptor
1 4 cation
1 4 donor
3 2 3 6 anion

> <PUBCHEM_HEAVY_ATOM_COUNT>
8

> <PUBCHEM_ATOM_DEF_STEREO_COUNT>
0

> <PUBCHEM_ATOM_UDEF_STEREO_COUNT>
0

> <PUBCHEM_BOND_DEF_STEREO_COUNT>
0

> <PUBCHEM_BOND_UDEF_STEREO_COUNT>
1

> <PUBCHEM_ISOTOPIC_ATOM_COUNT>
0

> <PUBCHEM_COMPONENT_COUNT>
1

> <PUBCHEM_CACTVS_TAUTO_COUNT>
1

> <PUBCHEM_CONFORMER_ID>
032F5F3300000001

> <PUBCHEM_MMFF94_ENERGY>
6.3025

> <PUBCHEM_FEATURE_SELFOVERLAP>
25.428

> <PUBCHEM_SHAPE_FINGERPRINT>
11062470 55 18261111863735289036
12932764 1 17458333148323856172
14325111 11 18410575089374855554
190213 19 17418096524974777224
5460574 1 9223229646157458888

> <PUBCHEM_SHAPE_MULTIPOLES>
149.79
6.74
0.93
0.59
3.56
0.13
0
-0.21
0.04
-0.49
0
0.1
-0.01
0

> <PUBCHEM_SHAPE_SELFOVERLAP>
269.38

> <PUBCHEM_SHAPE_VOLUME>
96.5

> <PUBCHEM_COORDINATE_TYPE>
2
5
10

$$$$
