9892275
  -OEChem-10241302463D

 73 75  0     1  0  0  0  0  0999 V2000
    2.2238   -0.5716   -0.1003 O   0  0  0  0  0  0  0  0  0  0  0  0
    3.6216    1.1494   -0.8271 O   0  0  0  0  0  0  0  0  0  0  0  0
   -0.3337   -2.0031   -0.4881 O   0  0  0  0  0  0  0  0  0  0  0  0
    2.8756   -4.0118    0.9739 O   0  0  0  0  0  0  0  0  0  0  0  0
    5.3988   -2.6781    1.4324 O   0  0  0  0  0  0  0  0  0  0  0  0
    5.8439   -0.5872   -0.5951 O   0  0  0  0  0  0  0  0  0  0  0  0
   -1.8483   -3.4835    0.4949 O   0  0  0  0  0  0  0  0  0  0  0  0
   -2.5201   -0.6115   -1.6814 O   0  0  0  0  0  0  0  0  0  0  0  0
   -4.8012   -2.3268   -2.1200 O   0  0  0  0  0  0  0  0  0  0  0  0
   -5.4814   -3.7821    0.3525 O   0  0  0  0  0  0  0  0  0  0  0  0
   -4.1790    2.3887    0.6270 O   0  0  0  0  0  0  0  0  0  0  0  0
   -0.7401    2.9514    1.7691 C   0  0  0  0  0  0  0  0  0  0  0  0
   -0.1944    3.5761    0.4437 C   0  0  2  0  0  0  0  0  0  0  0  0
    2.0010   -1.9778    0.0179 C   0  0  1  0  0  0  0  0  0  0  0  0
    3.0596   -2.5992    0.9322 C   0  0  2  0  0  0  0  0  0  0  0  0
    4.4669   -2.2874    0.4228 C   0  0  1  0  0  0  0  0  0  0  0  0
    4.6311   -0.7965    0.1280 C   0  0  2  0  0  0  0  0  0  0  0  0
    3.4726   -0.2657   -0.7165 C   0  0  1  0  0  0  0  0  0  0  0  0
   -1.9584    2.0567    1.4660 C   0  0  0  0  0  0  0  0  0  0  0  0
   -1.3011    4.2299   -0.3684 C   0  0  0  0  0  0  0  0  0  0  0  0
    0.5924   -2.1755    0.5690 C   0  0  0  0  0  0  0  0  0  0  0  0
    0.3347    2.1064    2.4872 C   0  0  0  0  0  0  0  0  0  0  0  0
   -1.1516    4.0767    2.7527 C   0  0  0  0  0  0  0  0  0  0  0  0
    0.5461    2.5900   -0.4210 C   0  0  0  0  0  0  0  0  0  0  0  0
   -1.6792   -2.1741   -0.0450 C   0  0  2  0  0  0  0  0  0  0  0  0
   -2.5994   -1.9698   -1.2496 C   0  0  1  0  0  0  0  0  0  0  0  0
   -3.0030    2.7506    0.6169 C   0  0  0  0  0  0  0  0  0  0  0  0
   -4.0553   -2.2805   -0.9031 C   0  0  2  0  0  0  0  0  0  0  0  0
    2.5760    1.7227   -1.6076 C   0  0  1  0  0  0  0  0  0  0  0  0
   -2.5870    3.8539   -0.2829 C   0  0  0  0  0  0  0  0  0  0  0  0
   -4.1721   -3.6227   -0.1818 C   0  0  1  0  0  0  0  0  0  0  0  0
    1.8417    2.7077   -0.7465 C   0  0  0  0  0  0  0  0  0  0  0  0
   -3.1738   -3.7041    0.9644 C   0  0  0  0  0  0  0  0  0  0  0  0
   -0.8862    5.3474   -1.2860 C   0  0  0  0  0  0  0  0  0  0  0  0
    3.1798    2.4011   -2.8303 C   0  0  0  0  0  0  0  0  0  0  0  0
    0.5048    4.3716    0.7418 H   0  0  0  0  0  0  0  0  0  0  0  0
    2.0489   -2.4276   -0.9835 H   0  0  0  0  0  0  0  0  0  0  0  0
    2.9457   -2.2239    1.9566 H   0  0  0  0  0  0  0  0  0  0  0  0
    4.7047   -2.8902   -0.4615 H   0  0  0  0  0  0  0  0  0  0  0  0
    4.7171   -0.2274    1.0612 H   0  0  0  0  0  0  0  0  0  0  0  0
    3.5076   -0.6924   -1.7285 H   0  0  0  0  0  0  0  0  0  0  0  0
   -1.6578    1.1473    0.9330 H   0  0  0  0  0  0  0  0  0  0  0  0
   -2.4368    1.7469    2.4032 H   0  0  0  0  0  0  0  0  0  0  0  0
    0.3834   -1.4462    1.3610 H   0  0  0  0  0  0  0  0  0  0  0  0
    0.4886   -3.1863    0.9764 H   0  0  0  0  0  0  0  0  0  0  0  0
    0.6178    1.2220    1.9067 H   0  0  0  0  0  0  0  0  0  0  0  0
   -0.0310    1.7467    3.4561 H   0  0  0  0  0  0  0  0  0  0  0  0
    1.2406    2.6947    2.6714 H   0  0  0  0  0  0  0  0  0  0  0  0
   -1.5379    3.6575    3.6891 H   0  0  0  0  0  0  0  0  0  0  0  0
   -1.9292    4.7307    2.3468 H   0  0  0  0  0  0  0  0  0  0  0  0
   -0.2915    4.7076    3.0051 H   0  0  0  0  0  0  0  0  0  0  0  0
   -0.0147    1.7386   -0.8015 H   0  0  0  0  0  0  0  0  0  0  0  0
   -1.8834   -1.4215    0.7285 H   0  0  0  0  0  0  0  0  0  0  0  0
   -2.2650   -2.5872   -2.0920 H   0  0  0  0  0  0  0  0  0  0  0  0
   -4.4994   -1.4784   -0.3017 H   0  0  0  0  0  0  0  0  0  0  0  0
    1.8802    0.9585   -1.9800 H   0  0  0  0  0  0  0  0  0  0  0  0
   -3.3646    4.3313   -0.8692 H   0  0  0  0  0  0  0  0  0  0  0  0
   -3.9992   -4.4383   -0.8945 H   0  0  0  0  0  0  0  0  0  0  0  0
    2.4116    3.5525   -0.3665 H   0  0  0  0  0  0  0  0  0  0  0  0
   -3.2101   -4.6984    1.4234 H   0  0  0  0  0  0  0  0  0  0  0  0
   -3.4135   -2.9893    1.7618 H   0  0  0  0  0  0  0  0  0  0  0  0
   -0.4101    6.1504   -0.7139 H   0  0  0  0  0  0  0  0  0  0  0  0
   -1.7391    5.7818   -1.8184 H   0  0  0  0  0  0  0  0  0  0  0  0
   -0.1767    4.9869   -2.0374 H   0  0  0  0  0  0  0  0  0  0  0  0
    2.9610   -4.3529    0.0672 H   0  0  0  0  0  0  0  0  0  0  0  0
    5.2237   -2.1465    2.2276 H   0  0  0  0  0  0  0  0  0  0  0  0
    5.7870   -1.0836   -1.4293 H   0  0  0  0  0  0  0  0  0  0  0  0
    3.7185    1.6692   -3.4422 H   0  0  0  0  0  0  0  0  0  0  0  0
    2.4105    2.8737   -3.4497 H   0  0  0  0  0  0  0  0  0  0  0  0
    3.9118    3.1636   -2.5399 H   0  0  0  0  0  0  0  0  0  0  0  0
   -2.7944   -0.0435   -0.9413 H   0  0  0  0  0  0  0  0  0  0  0  0
   -4.4424   -3.0456   -2.6678 H   0  0  0  0  0  0  0  0  0  0  0  0
   -5.5180   -4.6511    0.7876 H   0  0  0  0  0  0  0  0  0  0  0  0
  1 14  1  0  0  0  0
  1 18  1  0  0  0  0
  2 18  1  0  0  0  0
  2 29  1  0  0  0  0
  3 21  1  0  0  0  0
  3 25  1  0  0  0  0
  4 15  1  0  0  0  0
  4 65  1  0  0  0  0
  5 16  1  0  0  0  0
  5 66  1  0  0  0  0
  6 17  1  0  0  0  0
  6 67  1  0  0  0  0
  7 25  1  0  0  0  0
  7 33  1  0  0  0  0
  8 26  1  0  0  0  0
  8 71  1  0  0  0  0
  9 28  1  0  0  0  0
  9 72  1  0  0  0  0
 10 31  1  0  0  0  0
 10 73  1  0  0  0  0
 11 27  2  0  0  0  0
 12 13  1  0  0  0  0
 12 19  1  0  0  0  0
 12 22  1  0  0  0  0
 12 23  1  0  0  0  0
 13 20  1  0  0  0  0
 13 24  1  0  0  0  0
 13 36  1  0  0  0  0
 14 15  1  0  0  0  0
 14 21  1  0  0  0  0
 14 37  1  0  0  0  0
 15 16  1  0  0  0  0
 15 38  1  0  0  0  0
 16 17  1  0  0  0  0
 16 39  1  0  0  0  0
 17 18  1  0  0  0  0
 17 40  1  0  0  0  0
 18 41  1  0  0  0  0
 19 27  1  0  0  0  0
 19 42  1  0  0  0  0
 19 43  1  0  0  0  0
 20 30  2  0  0  0  0
 20 34  1  0  0  0  0
 21 44  1  0  0  0  0
 21 45  1  0  0  0  0
 22 46  1  0  0  0  0
 22 47  1  0  0  0  0
 22 48  1  0  0  0  0
 23 49  1  0  0  0  0
 23 50  1  0  0  0  0
 23 51  1  0  0  0  0
 24 32  2  0  0  0  0
 24 52  1  0  0  0  0
 25 26  1  0  0  0  0
 25 53  1  0  0  0  0
 26 28  1  0  0  0  0
 26 54  1  0  0  0  0
 27 30  1  0  0  0  0
 28 31  1  0  0  0  0
 28 55  1  0  0  0  0
 29 32  1  0  0  0  0
 29 35  1  0  0  0  0
 29 56  1  0  0  0  0
 30 57  1  0  0  0  0
 31 33  1  0  0  0  0
 31 58  1  0  0  0  0
 32 59  1  0  0  0  0
 33 60  1  0  0  0  0
 33 61  1  0  0  0  0
 34 62  1  0  0  0  0
 34 63  1  0  0  0  0
 34 64  1  0  0  0  0
 35 68  1  0  0  0  0
 35 69  1  0  0  0  0
 35 70  1  0  0  0  0
M  END
> <PUBCHEM_COMPOUND_CID>
9892275

> <PUBCHEM_CONFORMER_RMSD>
1.4

> <PUBCHEM_CONFORMER_DIVERSEORDER>
1
68
80
91
102
48
56
110
42
14
104
18
81
36
105
21
58
37
20
15
39
52
84
107
9
7
112
51
77
111
53
44
115
103
30
79
98
97
74
71
11
83
75
73
94
72
16
49
82
47
25
28
62
12
13
69
55
64
70
61
109
4
88
33
99
95
5
114
89
76
3
31
78
85
108
63
101
92
100
29
106
66
54
43
86
6
35
60
90
17
23
50
57
10
65
45
41
8
96
19
67
59
26
34
38
40
87
24
32
93
22
46
2
113
27

> <PUBCHEM_MMFF94_PARTIAL_CHARGES>
40
1 -0.56
10 -0.68
11 -0.57
13 0.28
14 0.28
15 0.28
16 0.28
17 0.28
18 0.56
19 0.06
2 -0.56
20 -0.28
21 0.28
24 -0.29
25 0.56
26 0.28
27 0.49
28 0.28
29 0.42
3 -0.56
30 -0.14
31 0.28
32 -0.29
33 0.28
34 0.14
4 -0.68
5 -0.68
52 0.15
57 0.15
59 0.15
6 -0.68
65 0.4
66 0.4
67 0.4
7 -0.56
71 0.4
72 0.4
73 0.4
8 -0.68
9 -0.68

> <PUBCHEM_EFFECTIVE_ROTOR_COUNT>
10

> <PUBCHEM_PHARMACOPHORE_FEATURES>
21
1 1 acceptor
1 10 acceptor
1 10 donor
1 11 acceptor
1 2 acceptor
1 3 acceptor
1 4 acceptor
1 4 donor
1 5 acceptor
1 5 donor
1 6 acceptor
1 6 donor
1 7 acceptor
1 8 acceptor
1 8 donor
1 9 acceptor
1 9 donor
3 12 22 23 hydrophobe
6 1 14 15 16 17 18 rings
6 12 13 19 20 27 30 rings
6 7 25 26 28 31 33 rings

> <PUBCHEM_HEAVY_ATOM_COUNT>
35

> <PUBCHEM_ATOM_DEF_STEREO_COUNT>
11

> <PUBCHEM_ATOM_UDEF_STEREO_COUNT>
0

> <PUBCHEM_BOND_DEF_STEREO_COUNT>
1

> <PUBCHEM_BOND_UDEF_STEREO_COUNT>
0

> <PUBCHEM_ISOTOPIC_ATOM_COUNT>
0

> <PUBCHEM_COMPONENT_COUNT>
1

> <PUBCHEM_CACTVS_TAUTO_COUNT>
8

> <PUBCHEM_CONFORMER_ID>
0096F1B300000001

> <PUBCHEM_MMFF94_ENERGY>
87.8289

> <PUBCHEM_FEATURE_SELFOVERLAP>
106.699

> <PUBCHEM_SHAPE_FINGERPRINT>
10190206 1 17901698135030918684
10675989 125 17833559268040620800
1100329 8 18411136901304459205
12156800 1 18195778861317014992
12522641 24 17548719812373895139
12769317 202 17832422373212517094
12788726 201 18198922455207458710
1361 2 17327166659528078661
14117953 113 17329147970917536413
14150022 121 18269813399649189410
14395042 24 18411139092191370553
15001296 14 18409729543548144540
151778 21 17040070417183330329
15264996 142 17975156265246099971
15351339 4 18192715759535057064
20764821 26 18409172138238954953
20775530 9 17985841555905786693
21344244 78 18191564523827775634
23559900 14 18116976974692815775
4066623 53 18196907033688694925
4403749 210 17540805106853873836
463206 1 18412266095151122241
6287921 2 17048532807941322129

> <PUBCHEM_SHAPE_MULTIPOLES>
655.72
9.59
8.36
2.06
5.02
2.68
0.14
-10.65
-1.34
-7.74
0.88
0.02
1.83
-3.58

> <PUBCHEM_SHAPE_SELFOVERLAP>
1349.551

> <PUBCHEM_SHAPE_VOLUME>
371

> <PUBCHEM_COORDINATE_TYPE>
2
5
10

$$$$
