5379179
  -OEChem-10241303053D

 40 43  0     0  0  0  0  0  0999 V2000
    0.9140    2.7849    0.2052 O   0  0  0  0  0  0  0  0  0  0  0  0
    4.2273   -0.6944   -0.0252 O   0  0  0  0  0  0  0  0  0  0  0  0
    3.5815    1.8946    0.0987 O   0  0  0  0  0  0  0  0  0  0  0  0
   -5.1827   -0.9455    0.7350 O   0  0  0  0  0  0  0  0  0  0  0  0
   -5.0678    1.0375   -1.2020 O   0  0  0  0  0  0  0  0  0  0  0  0
   -0.3255   -3.0897   -0.0022 N   0  0  0  0  0  0  0  0  0  0  0  0
    0.5497   -0.8994    0.0585 C   0  0  0  0  0  0  0  0  0  0  0  0
    0.1550    0.4904    0.1405 C   0  0  0  0  0  0  0  0  0  0  0  0
   -0.4969   -1.7302    0.0608 C   0  0  0  0  0  0  0  0  0  0  0  0
   -1.2034    0.5390    0.1899 C   0  0  0  0  0  0  0  0  0  0  0  0
   -1.6699   -0.8774    0.1395 C   0  0  0  0  0  0  0  0  0  0  0  0
    1.9140   -1.3978   -0.0003 C   0  0  0  0  0  0  0  0  0  0  0  0
    1.2457    1.4532    0.1530 C   0  0  0  0  0  0  0  0  0  0  0  0
    2.8735   -0.4402    0.0202 C   0  0  0  0  0  0  0  0  0  0  0  0
    2.5246    1.0024    0.0954 C   0  0  0  0  0  0  0  0  0  0  0  0
    2.0789   -2.8592   -0.0705 C   0  0  0  0  0  0  0  0  0  0  0  0
   -1.9896    1.7389    0.3518 C   0  0  0  0  0  0  0  0  0  0  0  0
   -2.9219   -1.3458    0.1859 C   0  0  0  0  0  0  0  0  0  0  0  0
    0.9574   -3.6193   -0.0673 C   0  0  0  0  0  0  0  0  0  0  0  0
   -3.2923    1.8949    0.0976 C   0  0  0  0  0  0  0  0  0  0  0  0
   -4.1414   -0.5222    0.2489 C   0  0  0  0  0  0  0  0  0  0  0  0
   -4.1900    0.8309   -0.3750 C   0  0  0  0  0  0  0  0  0  0  0  0
    0.7664    3.3223   -1.0968 C   0  0  0  0  0  0  0  0  0  0  0  0
    4.6865   -0.7256   -1.3620 C   0  0  0  0  0  0  0  0  0  0  0  0
    4.0068    2.1579    1.4201 C   0  0  0  0  0  0  0  0  0  0  0  0
   -1.1235   -3.7103   -0.0012 H   0  0  0  0  0  0  0  0  0  0  0  0
    3.0682   -3.2967   -0.1193 H   0  0  0  0  0  0  0  0  0  0  0  0
   -1.4657    2.6270    0.6929 H   0  0  0  0  0  0  0  0  0  0  0  0
   -3.1049   -2.4174    0.2115 H   0  0  0  0  0  0  0  0  0  0  0  0
    0.9807   -4.7008   -0.1142 H   0  0  0  0  0  0  0  0  0  0  0  0
   -3.7368    2.8823    0.1843 H   0  0  0  0  0  0  0  0  0  0  0  0
    0.0160    2.7818   -1.6840 H   0  0  0  0  0  0  0  0  0  0  0  0
    1.7230    3.3260   -1.6307 H   0  0  0  0  0  0  0  0  0  0  0  0
    0.4331    4.3599   -0.9994 H   0  0  0  0  0  0  0  0  0  0  0  0
    5.7632   -0.9204   -1.3459 H   0  0  0  0  0  0  0  0  0  0  0  0
    4.5285    0.2319   -1.8703 H   0  0  0  0  0  0  0  0  0  0  0  0
    4.2101   -1.5320   -1.9305 H   0  0  0  0  0  0  0  0  0  0  0  0
    4.8525    2.8506    1.3727 H   0  0  0  0  0  0  0  0  0  0  0  0
    4.3482    1.2488    1.9273 H   0  0  0  0  0  0  0  0  0  0  0  0
    3.2153    2.6375    2.0068 H   0  0  0  0  0  0  0  0  0  0  0  0
  1 13  1  0  0  0  0
  1 23  1  0  0  0  0
  2 14  1  0  0  0  0
  2 24  1  0  0  0  0
  3 15  1  0  0  0  0
  3 25  1  0  0  0  0
  4 21  2  0  0  0  0
  5 22  2  0  0  0  0
  6  9  1  0  0  0  0
  6 19  1  0  0  0  0
  6 26  1  0  0  0  0
  7  8  1  0  0  0  0
  7  9  2  0  0  0  0
  7 12  1  0  0  0  0
  8 10  2  0  0  0  0
  8 13  1  0  0  0  0
  9 11  1  0  0  0  0
 10 11  1  0  0  0  0
 10 17  1  0  0  0  0
 11 18  2  0  0  0  0
 12 14  2  0  0  0  0
 12 16  1  0  0  0  0
 13 15  2  0  0  0  0
 14 15  1  0  0  0  0
 16 19  2  0  0  0  0
 16 27  1  0  0  0  0
 17 20  2  0  0  0  0
 17 28  1  0  0  0  0
 18 21  1  0  0  0  0
 18 29  1  0  0  0  0
 19 30  1  0  0  0  0
 20 22  1  0  0  0  0
 20 31  1  0  0  0  0
 21 22  1  0  0  0  0
 23 32  1  0  0  0  0
 23 33  1  0  0  0  0
 23 34  1  0  0  0  0
 24 35  1  0  0  0  0
 24 36  1  0  0  0  0
 24 37  1  0  0  0  0
 25 38  1  0  0  0  0
 25 39  1  0  0  0  0
 25 40  1  0  0  0  0
M  END
> <PUBCHEM_COMPOUND_CID>
5379179

> <PUBCHEM_CONFORMER_RMSD>
0.6

> <PUBCHEM_CONFORMER_DIVERSEORDER>
1
3
6
2
4
5

> <PUBCHEM_MMFF94_PARTIAL_CHARGES>
26
1 -0.36
13 0.08
14 0.08
15 0.08
16 -0.15
17 -0.15
18 -0.14
19 -0.05
2 -0.36
20 -0.14
21 0.56
22 0.56
23 0.28
24 0.28
25 0.28
26 0.4
27 0.15
28 0.15
29 0.15
3 -0.36
30 0.15
31 0.15
4 -0.57
5 -0.57
6 -0.6
9 0.1

> <PUBCHEM_EFFECTIVE_ROTOR_COUNT>
3

> <PUBCHEM_PHARMACOPHORE_FEATURES>
11
1 1 acceptor
1 2 acceptor
1 3 acceptor
1 4 acceptor
1 5 acceptor
1 6 cation
1 6 donor
5 7 8 9 10 11 rings
6 6 7 9 12 16 19 rings
6 7 8 12 13 14 15 rings
7 10 11 17 18 20 21 22 rings

> <PUBCHEM_HEAVY_ATOM_COUNT>
25

> <PUBCHEM_ATOM_DEF_STEREO_COUNT>
0

> <PUBCHEM_ATOM_UDEF_STEREO_COUNT>
0

> <PUBCHEM_BOND_DEF_STEREO_COUNT>
0

> <PUBCHEM_BOND_UDEF_STEREO_COUNT>
0

> <PUBCHEM_ISOTOPIC_ATOM_COUNT>
0

> <PUBCHEM_COMPONENT_COUNT>
1

> <PUBCHEM_CACTVS_TAUTO_COUNT>
1

> <PUBCHEM_CONFORMER_ID>
0052146B00000001

> <PUBCHEM_MMFF94_ENERGY>
133.3352

> <PUBCHEM_FEATURE_SELFOVERLAP>
56.08

> <PUBCHEM_SHAPE_FINGERPRINT>
10411042 1 17979355252918835515
10693767 8 17987228928683784894
10967382 1 18410856533922960747
1100329 8 18051130594790776440
11370993 70 18340197595948117096
11578080 2 16627707256508450186
12011746 2 18409732828749558054
12403259 226 18193837033751526774
12403259 415 18409450293200995361
12553582 1 17690567377437833419
13140716 1 18265892467040967224
138480 1 18123187909592513450
14790565 3 18337402607747928844
15196674 1 18411136948317036425
15536298 74 18343584061939476088
1601671 61 18335986376277249062
16945 1 18050572043104957370
19591789 44 18410858741794620222
20028762 73 18201998880242725695
20739085 24 18336281066805396488
20905425 154 18051980216704981814
21033648 29 18272078452582294241
21267235 1 18340217322785680915
21421861 104 17609499315537720970
221490 88 18337397032938199451
22149856 69 18267039396305339547
22182313 1 18410295834479466572
22393880 68 18341330011583897183
2334 1 18411139186200576552
23419403 2 16977258121953467216
23558518 356 17469877153090528098
23559900 14 18411133640939192897
2748010 2 18410859893135739514
335352 9 18411139121443939910
350125 39 18411144623159843840
352729 6 18050010192357403675
5104073 3 18410012113773009249
59755656 215 18408887309172451591
6138700 20 18338804395221882358
7364860 26 18340485565073608731
9709674 26 18267025140074532843

> <PUBCHEM_SHAPE_MULTIPOLES>
480.16
8.6
3.78
0.9
4.79
0.67
-0.08
-1.48
-0.6
-1.94
-0.14
-0.38
-0.36
1.02

> <PUBCHEM_SHAPE_SELFOVERLAP>
1079.139

> <PUBCHEM_SHAPE_VOLUME>
252.7

> <PUBCHEM_COORDINATE_TYPE>
2
5
10

$$$$
