2182
  -OEChem-10241303053D

 23 25  0     0  0  0  0  0  0999 V2000
    2.4956   -2.5151   -0.0002 Cl  0  0  0  0  0  0  0  0  0  0  0  0
    4.9000   -0.4201    0.0005 Cl  0  0  0  0  0  0  0  0  0  0  0  0
   -4.9935   -0.2745    0.0012 O   0  0  0  0  0  0  0  0  0  0  0  0
   -1.5654   -0.6490   -0.0003 N   0  0  0  0  0  0  0  0  0  0  0  0
   -0.7067    1.5399    0.0000 N   0  0  0  0  0  0  0  0  0  0  0  0
   -3.0609    1.0301   -0.0006 N   0  0  0  0  0  0  0  0  0  0  0  0
   -0.2858   -1.3187   -0.0003 C   0  0  0  0  0  0  0  0  0  0  0  0
    0.8599   -0.3322    0.0001 C   0  0  0  0  0  0  0  0  0  0  0  0
   -1.7912    0.7037   -0.0006 C   0  0  0  0  0  0  0  0  0  0  0  0
   -2.8201   -1.3578    0.0002 C   0  0  0  0  0  0  0  0  0  0  0  0
    0.6141    1.0565    0.0003 C   0  0  0  0  0  0  0  0  0  0  0  0
   -3.7741   -0.1650   -0.0003 C   0  0  0  0  0  0  0  0  0  0  0  0
    2.1795   -0.8033   -0.0001 C   0  0  0  0  0  0  0  0  0  0  0  0
    1.6957    1.9462    0.0002 C   0  0  0  0  0  0  0  0  0  0  0  0
    3.2472    0.0936   -0.0001 C   0  0  0  0  0  0  0  0  0  0  0  0
    3.0057    1.4658    0.0000 C   0  0  0  0  0  0  0  0  0  0  0  0
   -0.2238   -1.9509   -0.8933 H   0  0  0  0  0  0  0  0  0  0  0  0
   -0.2240   -1.9514    0.8925 H   0  0  0  0  0  0  0  0  0  0  0  0
   -2.9566   -1.9499    0.9082 H   0  0  0  0  0  0  0  0  0  0  0  0
   -2.9568   -1.9509   -0.9071 H   0  0  0  0  0  0  0  0  0  0  0  0
   -0.8355    2.5453    0.0003 H   0  0  0  0  0  0  0  0  0  0  0  0
    1.5248    3.0201    0.0002 H   0  0  0  0  0  0  0  0  0  0  0  0
    3.8264    2.1789    0.0002 H   0  0  0  0  0  0  0  0  0  0  0  0
  1 13  1  0  0  0  0
  2 15  1  0  0  0  0
  3 12  2  0  0  0  0
  4  7  1  0  0  0  0
  4  9  1  0  0  0  0
  4 10  1  0  0  0  0
  5  9  1  0  0  0  0
  5 11  1  0  0  0  0
  5 21  1  0  0  0  0
  6  9  2  0  0  0  0
  6 12  1  0  0  0  0
  7  8  1  0  0  0  0
  7 17  1  0  0  0  0
  7 18  1  0  0  0  0
  8 11  2  0  0  0  0
  8 13  1  0  0  0  0
 10 12  1  0  0  0  0
 10 19  1  0  0  0  0
 10 20  1  0  0  0  0
 11 14  1  0  0  0  0
 13 15  2  0  0  0  0
 14 16  2  0  0  0  0
 14 22  1  0  0  0  0
 15 16  1  0  0  0  0
 16 23  1  0  0  0  0
M  END
> <PUBCHEM_COMPOUND_CID>
2182

> <PUBCHEM_CONFORMER_RMSD>
0.4

> <PUBCHEM_CONFORMER_DIVERSEORDER>
1

> <PUBCHEM_MMFF94_PARTIAL_CHARGES>
19
1 -0.18
10 0.43
11 0.1
12 0.72
13 0.18
14 -0.15
15 0.18
16 -0.15
2 -0.18
21 0.4
22 0.15
23 0.15
3 -0.57
4 -0.79
5 -0.55
6 -0.66
7 0.51
8 -0.14
9 0.55

> <PUBCHEM_EFFECTIVE_ROTOR_COUNT>
0.6

> <PUBCHEM_PHARMACOPHORE_FEATURES>
6
1 3 acceptor
1 5 donor
1 6 donor
5 4 6 9 10 12 rings
6 4 5 7 8 9 11 rings
6 8 11 13 14 15 16 rings

> <PUBCHEM_HEAVY_ATOM_COUNT>
16

> <PUBCHEM_ATOM_DEF_STEREO_COUNT>
0

> <PUBCHEM_ATOM_UDEF_STEREO_COUNT>
0

> <PUBCHEM_BOND_DEF_STEREO_COUNT>
0

> <PUBCHEM_BOND_UDEF_STEREO_COUNT>
0

> <PUBCHEM_ISOTOPIC_ATOM_COUNT>
0

> <PUBCHEM_COMPONENT_COUNT>
1

> <PUBCHEM_CACTVS_TAUTO_COUNT>
3

> <PUBCHEM_CONFORMER_ID>
0000088600000001

> <PUBCHEM_MMFF94_ENERGY>
47.9813

> <PUBCHEM_FEATURE_SELFOVERLAP>
30.607

> <PUBCHEM_SHAPE_FINGERPRINT>
10608611 8 18409163320529112757
10616163 171 18341332300728294783
10967382 1 18410855468760359366
10980938 120 18410573998257990082
11132069 177 18411411847677607544
11471102 20 18410571816367183004
11806522 49 18409730642964547438
12032990 46 18409735083549307337
12251169 10 18413388739292743767
13140716 1 18267015253518552282
13221675 6 18411138039154262070
13380535 76 18408886265073697762
13690532 89 18409729551984903432
13862211 1 18410288095555417914
14115302 16 17894923952879705190
14144814 61 18411419496755807921
14251717 144 18411135839978129662
14252887 29 17774730783692030854
14325111 11 18410575119144441889
14576447 43 18128521842694725063
15196674 1 18338517555054967651
15442244 35 18268149747201240880
15536298 74 18343020025438411120
16945 1 18410855469034659456
17802600 8 18410007740968929684
18186145 218 17822282530772547143
18522853 276 18342455945850581840
200 152 18131348622390413837
20201158 50 18409168809444303210
20559304 39 18411135814540427434
20645477 70 18412261727242897647
20871998 22 18269558235009123846
21267235 1 18411146835010069794
21501502 16 18268153062937293728
21501925 9 18410848846158107482
221490 88 18263651829968824186
2255824 54 18335142050590469716
2334 1 17906453586421897610
23402539 116 18131062736719842733
23402655 69 18412821370192657941
23463225 33 18410855447248534740
23559900 14 18339356465637793680
2748010 2 18122619453696344364
2871803 45 18334853905049312062
335352 9 18410573976587929718
33824 294 18409447007419125746
5104073 3 18339080505018919961
69090 78 18343016726972151671
7364860 26 18413670201753902058
8809292 202 18187931724001974802
9709674 26 18410016550052764523

> <PUBCHEM_SHAPE_MULTIPOLES>
312.2
8.06
2.05
0.6
2.99
0.34
0
1.09
0
-1.21
0
-0.08
0.02
0

> <PUBCHEM_SHAPE_SELFOVERLAP>
671.112

> <PUBCHEM_SHAPE_VOLUME>
174.1

> <PUBCHEM_COORDINATE_TYPE>
2
5
10

$$$$
