107854
  -OEChem-10241303003D

 95 98  0     1  0  0  0  0  0999 V2000
   -0.0535    1.2776   -2.4562 O   0  0  0  0  0  0  0  0  0  0  0  0
   -1.0056    2.7303    0.0738 O   0  0  0  0  0  0  0  0  0  0  0  0
   -3.7495    0.4517   -2.1715 O   0  0  0  0  0  0  0  0  0  0  0  0
   -4.0545   -1.0474    1.8957 O   0  0  0  0  0  0  0  0  0  0  0  0
   -6.8335   -1.7660    2.4144 O   0  0  0  0  0  0  0  0  0  0  0  0
   -3.8511   -5.6018   -0.1828 O   0  0  0  0  0  0  0  0  0  0  0  0
   -0.4108    3.9907   -1.7635 O   0  0  0  0  0  0  0  0  0  0  0  0
   -1.1980   -0.6418   -1.3501 C   0  0  1  0  0  0  0  0  0  0  0  0
   -0.7933    0.8079   -1.3106 C   0  0  1  0  0  0  0  0  0  0  0  0
   -0.0856   -0.1860   -0.4344 C   0  0  0  0  0  0  0  0  0  0  0  0
   -2.5073   -1.0968   -0.7282 C   0  0  1  0  0  0  0  0  0  0  0  0
   -1.7335    1.8394   -0.7728 C   0  0  1  0  0  0  0  0  0  0  0  0
   -3.5883    0.0486   -0.7967 C   0  0  1  0  0  0  0  0  0  0  0  0
   -2.9791    1.2788   -0.0279 C   0  0  2  0  0  0  0  0  0  0  0  0
    1.2969   -0.6066   -0.8179 C   0  0  0  0  0  0  0  0  0  0  0  0
   -0.2557   -0.1132    1.0462 C   0  0  0  0  0  0  0  0  0  0  0  0
   -4.9789   -0.5131   -0.3598 C   0  0  1  0  0  0  0  0  0  0  0  0
   -2.9549   -2.4630   -1.2121 C   0  0  0  0  0  0  0  0  0  0  0  0
   -4.9718   -1.4275    0.8808 C   0  0  1  0  0  0  0  0  0  0  0  0
   -3.9365    2.4548    0.2122 C   0  0  0  0  0  0  0  0  0  0  0  0
   -3.8796   -3.2615   -0.6392 C   0  0  0  0  0  0  0  0  0  0  0  0
   -4.7883   -2.9117    0.5320 C   0  0  0  0  0  0  0  0  0  0  0  0
   -6.1371    0.4129   -0.1147 C   0  0  0  0  0  0  0  0  0  0  0  0
   -6.3213   -1.1337    1.5022 C   0  0  0  0  0  0  0  0  0  0  0  0
   -6.9299    0.0714    0.9062 C   0  0  0  0  0  0  0  0  0  0  0  0
   -0.3883    3.7705   -0.5601 C   0  0  0  0  0  0  0  0  0  0  0  0
   -4.1090   -4.6470   -1.1910 C   0  0  0  0  0  0  0  0  0  0  0  0
   -8.1812    0.6921    1.3885 C   0  0  0  0  0  0  0  0  0  0  0  0
    0.3684    4.5939    0.4585 C   0  0  0  0  0  0  0  0  0  0  0  0
    1.4198    3.7958    1.2308 C   0  0  0  0  0  0  0  0  0  0  0  0
    2.5741    3.2702    0.3682 C   0  0  0  0  0  0  0  0  0  0  0  0
    3.6067    2.4461    1.1380 C   0  0  0  0  0  0  0  0  0  0  0  0
    4.7090    1.9312    0.2094 C   0  0  0  0  0  0  0  0  0  0  0  0
    5.7607    1.1345    0.9836 C   0  0  0  0  0  0  0  0  0  0  0  0
    6.8803    0.6473    0.0611 C   0  0  0  0  0  0  0  0  0  0  0  0
    7.9139   -0.1769    0.8322 C   0  0  0  0  0  0  0  0  0  0  0  0
    9.0432   -0.7169   -0.0499 C   0  0  0  0  0  0  0  0  0  0  0  0
   10.1155   -1.4786    0.7321 C   0  0  0  0  0  0  0  0  0  0  0  0
   11.2532   -1.9322   -0.1857 C   0  0  0  0  0  0  0  0  0  0  0  0
   12.3098   -2.7215    0.5867 C   0  0  0  0  0  0  0  0  0  0  0  0
   13.4250   -3.2025   -0.3278 C   0  0  0  0  0  0  0  0  0  0  0  0
   -0.9462   -1.1784   -2.2582 H   0  0  0  0  0  0  0  0  0  0  0  0
   -2.2993   -1.2784    0.3288 H   0  0  0  0  0  0  0  0  0  0  0  0
   -2.1324    2.3995   -1.6312 H   0  0  0  0  0  0  0  0  0  0  0  0
   -2.7313    0.9574    0.9832 H   0  0  0  0  0  0  0  0  0  0  0  0
    2.0274    0.1540   -0.5270 H   0  0  0  0  0  0  0  0  0  0  0  0
    1.5650   -1.5431   -0.3160 H   0  0  0  0  0  0  0  0  0  0  0  0
    1.4082   -0.7780   -1.8942 H   0  0  0  0  0  0  0  0  0  0  0  0
   -0.4916   -1.0991    1.4611 H   0  0  0  0  0  0  0  0  0  0  0  0
   -0.9572    0.6085    1.4429 H   0  0  0  0  0  0  0  0  0  0  0  0
    0.6986    0.1773    1.5061 H   0  0  0  0  0  0  0  0  0  0  0  0
   -5.3581   -1.0975   -1.2151 H   0  0  0  0  0  0  0  0  0  0  0  0
   -0.6361    1.3635   -3.2300 H   0  0  0  0  0  0  0  0  0  0  0  0
   -2.4116   -2.8592   -2.0686 H   0  0  0  0  0  0  0  0  0  0  0  0
   -3.4058    3.3283    0.6073 H   0  0  0  0  0  0  0  0  0  0  0  0
   -4.6899    2.2080    0.9641 H   0  0  0  0  0  0  0  0  0  0  0  0
   -4.4344    2.7639   -0.7121 H   0  0  0  0  0  0  0  0  0  0  0  0
   -3.9383   -0.3413   -2.7010 H   0  0  0  0  0  0  0  0  0  0  0  0
   -5.7812   -3.3181    0.2918 H   0  0  0  0  0  0  0  0  0  0  0  0
   -4.4364   -3.4654    1.4121 H   0  0  0  0  0  0  0  0  0  0  0  0
   -6.3615    1.2399   -0.7765 H   0  0  0  0  0  0  0  0  0  0  0  0
   -4.1391   -1.6697    2.6380 H   0  0  0  0  0  0  0  0  0  0  0  0
   -3.4582   -4.8662   -2.0441 H   0  0  0  0  0  0  0  0  0  0  0  0
   -5.1467   -4.7524   -1.5257 H   0  0  0  0  0  0  0  0  0  0  0  0
   -9.0085   -0.0226    1.3393 H   0  0  0  0  0  0  0  0  0  0  0  0
   -8.4529    1.5645    0.7855 H   0  0  0  0  0  0  0  0  0  0  0  0
   -8.0698    1.0214    2.4262 H   0  0  0  0  0  0  0  0  0  0  0  0
   -0.3641    5.0273    1.1491 H   0  0  0  0  0  0  0  0  0  0  0  0
    0.8453    5.4299   -0.0662 H   0  0  0  0  0  0  0  0  0  0  0  0
   -4.0291   -6.4786   -0.5636 H   0  0  0  0  0  0  0  0  0  0  0  0
    0.9439    2.9513    1.7435 H   0  0  0  0  0  0  0  0  0  0  0  0
    1.8350    4.4409    2.0150 H   0  0  0  0  0  0  0  0  0  0  0  0
    2.1650    2.6558   -0.4428 H   0  0  0  0  0  0  0  0  0  0  0  0
    3.0752    4.1220   -0.1082 H   0  0  0  0  0  0  0  0  0  0  0  0
    3.1100    1.5984    1.6250 H   0  0  0  0  0  0  0  0  0  0  0  0
    4.0467    3.0628    1.9309 H   0  0  0  0  0  0  0  0  0  0  0  0
    5.1900    2.7797   -0.2925 H   0  0  0  0  0  0  0  0  0  0  0  0
    4.2706    1.3003   -0.5729 H   0  0  0  0  0  0  0  0  0  0  0  0
    6.1867    1.7599    1.7775 H   0  0  0  0  0  0  0  0  0  0  0  0
    5.2828    0.2752    1.4698 H   0  0  0  0  0  0  0  0  0  0  0  0
    7.3727    1.5065   -0.4097 H   0  0  0  0  0  0  0  0  0  0  0  0
    6.4545    0.0364   -0.7440 H   0  0  0  0  0  0  0  0  0  0  0  0
    7.4140   -1.0200    1.3251 H   0  0  0  0  0  0  0  0  0  0  0  0
    8.3455    0.4437    1.6274 H   0  0  0  0  0  0  0  0  0  0  0  0
    8.6170   -1.3737   -0.8182 H   0  0  0  0  0  0  0  0  0  0  0  0
    9.5127    0.1231   -0.5772 H   0  0  0  0  0  0  0  0  0  0  0  0
   10.5183   -0.8365    1.5246 H   0  0  0  0  0  0  0  0  0  0  0  0
    9.6608   -2.3491    1.2202 H   0  0  0  0  0  0  0  0  0  0  0  0
   11.7182   -1.0577   -0.6569 H   0  0  0  0  0  0  0  0  0  0  0  0
   10.8467   -2.5555   -0.9916 H   0  0  0  0  0  0  0  0  0  0  0  0
   12.7369   -2.0953    1.3785 H   0  0  0  0  0  0  0  0  0  0  0  0
   11.8464   -3.5880    1.0728 H   0  0  0  0  0  0  0  0  0  0  0  0
   14.1699   -3.7633    0.2454 H   0  0  0  0  0  0  0  0  0  0  0  0
   13.9303   -2.3583   -0.8075 H   0  0  0  0  0  0  0  0  0  0  0  0
   13.0341   -3.8596   -1.1113 H   0  0  0  0  0  0  0  0  0  0  0  0
  1  9  1  0  0  0  0
  1 53  1  0  0  0  0
  2 12  1  0  0  0  0
  2 26  1  0  0  0  0
  3 13  1  0  0  0  0
  3 58  1  0  0  0  0
  4 19  1  0  0  0  0
  4 62  1  0  0  0  0
  5 24  2  0  0  0  0
  6 27  1  0  0  0  0
  6 70  1  0  0  0  0
  7 26  2  0  0  0  0
  8  9  1  0  0  0  0
  8 10  1  0  0  0  0
  8 11  1  0  0  0  0
  8 42  1  0  0  0  0
  9 10  1  0  0  0  0
  9 12  1  0  0  0  0
 10 15  1  0  0  0  0
 10 16  1  0  0  0  0
 11 13  1  0  0  0  0
 11 18  1  0  0  0  0
 11 43  1  0  0  0  0
 12 14  1  0  0  0  0
 12 44  1  0  0  0  0
 13 14  1  0  0  0  0
 13 17  1  0  0  0  0
 14 20  1  0  0  0  0
 14 45  1  0  0  0  0
 15 46  1  0  0  0  0
 15 47  1  0  0  0  0
 15 48  1  0  0  0  0
 16 49  1  0  0  0  0
 16 50  1  0  0  0  0
 16 51  1  0  0  0  0
 17 19  1  0  0  0  0
 17 23  1  0  0  0  0
 17 52  1  0  0  0  0
 18 21  2  0  0  0  0
 18 54  1  0  0  0  0
 19 22  1  0  0  0  0
 19 24  1  0  0  0  0
 20 55  1  0  0  0  0
 20 56  1  0  0  0  0
 20 57  1  0  0  0  0
 21 22  1  0  0  0  0
 21 27  1  0  0  0  0
 22 59  1  0  0  0  0
 22 60  1  0  0  0  0
 23 25  2  0  0  0  0
 23 61  1  0  0  0  0
 24 25  1  0  0  0  0
 25 28  1  0  0  0  0
 26 29  1  0  0  0  0
 27 63  1  0  0  0  0
 27 64  1  0  0  0  0
 28 65  1  0  0  0  0
 28 66  1  0  0  0  0
 28 67  1  0  0  0  0
 29 30  1  0  0  0  0
 29 68  1  0  0  0  0
 29 69  1  0  0  0  0
 30 31  1  0  0  0  0
 30 71  1  0  0  0  0
 30 72  1  0  0  0  0
 31 32  1  0  0  0  0
 31 73  1  0  0  0  0
 31 74  1  0  0  0  0
 32 33  1  0  0  0  0
 32 75  1  0  0  0  0
 32 76  1  0  0  0  0
 33 34  1  0  0  0  0
 33 77  1  0  0  0  0
 33 78  1  0  0  0  0
 34 35  1  0  0  0  0
 34 79  1  0  0  0  0
 34 80  1  0  0  0  0
 35 36  1  0  0  0  0
 35 81  1  0  0  0  0
 35 82  1  0  0  0  0
 36 37  1  0  0  0  0
 36 83  1  0  0  0  0
 36 84  1  0  0  0  0
 37 38  1  0  0  0  0
 37 85  1  0  0  0  0
 37 86  1  0  0  0  0
 38 39  1  0  0  0  0
 38 87  1  0  0  0  0
 38 88  1  0  0  0  0
 39 40  1  0  0  0  0
 39 89  1  0  0  0  0
 39 90  1  0  0  0  0
 40 41  1  0  0  0  0
 40 91  1  0  0  0  0
 40 92  1  0  0  0  0
 41 93  1  0  0  0  0
 41 94  1  0  0  0  0
 41 95  1  0  0  0  0
M  END
> <PUBCHEM_COMPOUND_CID>
107854

> <PUBCHEM_CONFORMER_RMSD>
1.4

> <PUBCHEM_CONFORMER_DIVERSEORDER>
1
67
33
60
3
71
69
30
45
29
47
5
59
2
26
38
32
72
73
56
11
52
35
18
7
68
6
10
8
28
53
80
31
42
79
15
77
9
17
37
13
66
25
61
16
76
40
70
83
50
43
39
14
23
82
49
41
78
58
46
27
55
4
34
20
62
65
75
22
48
51
57
74
36
24
54
44
64
12
63
19
21
81

> <PUBCHEM_MMFF94_PARTIAL_CHARGES>
34
1 -0.55
10 -0.19
11 0.23
12 0.38
13 0.28
15 0.09
16 0.09
17 0.14
18 -0.29
19 0.34
2 -0.43
21 -0.28
22 0.14
23 -0.29
24 0.49
25 -0.12
26 0.66
27 0.42
28 0.14
29 0.06
3 -0.68
4 -0.68
42 0.1
5 -0.57
53 0.4
54 0.15
58 0.4
6 -0.68
61 0.15
62 0.4
7 -0.57
70 0.4
8 -0.19
9 0.05

> <PUBCHEM_EFFECTIVE_ROTOR_COUNT>
15.8

> <PUBCHEM_PHARMACOPHORE_FEATURES>
15
1 1 acceptor
1 1 donor
1 3 acceptor
1 3 donor
1 4 acceptor
1 4 donor
1 41 hydrophobe
1 5 acceptor
1 6 acceptor
1 6 donor
1 7 acceptor
3 10 15 16 hydrophobe
5 17 19 23 24 25 rings
7 11 13 17 18 19 21 22 rings
7 8 9 10 11 12 13 14 rings

> <PUBCHEM_HEAVY_ATOM_COUNT>
41

> <PUBCHEM_ATOM_DEF_STEREO_COUNT>
8

> <PUBCHEM_ATOM_UDEF_STEREO_COUNT>
0

> <PUBCHEM_BOND_DEF_STEREO_COUNT>
0

> <PUBCHEM_BOND_UDEF_STEREO_COUNT>
0

> <PUBCHEM_ISOTOPIC_ATOM_COUNT>
0

> <PUBCHEM_COMPONENT_COUNT>
1

> <PUBCHEM_CACTVS_TAUTO_COUNT>
3

> <PUBCHEM_CONFORMER_ID>
0001A54E00000001

> <PUBCHEM_MMFF94_ENERGY>
90.4889

> <PUBCHEM_FEATURE_SELFOVERLAP>
76.163

> <PUBCHEM_SHAPE_FINGERPRINT>
11211813 15 9799693684169289360
117089 54 18265048227491170266
11756154 67 18409165494231256252
12422481 6 18198625639119938305
13140716 1 17836668335733113879
14420673 8 18411696625273574837
15685185 35 9151170948513493864
20105231 36 18335423482702183122
21057603 238 17896021287529398671
21130935 74 18127124410728747792
23559900 14 17485405384422490989
23569914 2 13899701037257017299
23569917 315 18266173028293028375
3504750 166 17986106542597928879
4756326 101 13110691501469401233
54039377 194 18410575060107033352
57676310 108 14491340655261941689
57676310 184 17534078633638341138
6673363 416 7853566916009414355

> <PUBCHEM_SHAPE_MULTIPOLES>
802.68
32.69
5.84
1.61
148.37
0.72
0.09
39.42
-11
-0.57
0.58
-2.37
-0.05
0.68

> <PUBCHEM_SHAPE_SELFOVERLAP>
1651.384

> <PUBCHEM_SHAPE_VOLUME>
457.8

> <PUBCHEM_COORDINATE_TYPE>
2
5
10

$$$$
