160765
  -OEChem-10241303123D

 15 14  0     0  0  0  0  0  0999 V2000
   -1.2287    0.2943   -0.5657 S   0  3  0  0  0  0  0  0  0  0  0  0
    1.7695    0.9033   -0.8225 O   0  5  0  0  0  0  0  0  0  0  0  0
    2.0330   -0.8745    0.5922 O   0  0  0  0  0  0  0  0  0  0  0  0
    0.0534    0.3939    0.7053 C   0  0  0  0  0  0  0  0  0  0  0  0
   -2.6241    0.6755    0.5191 C   0  0  0  0  0  0  0  0  0  0  0  0
   -1.4206   -1.5033   -0.5244 C   0  0  0  0  0  0  0  0  0  0  0  0
    1.4175    0.1108    0.0960 C   0  0  0  0  0  0  0  0  0  0  0  0
    0.0602    1.4157    1.1003 H   0  0  0  0  0  0  0  0  0  0  0  0
   -0.1671   -0.2854    1.5346 H   0  0  0  0  0  0  0  0  0  0  0  0
   -2.5876    1.7361    0.7800 H   0  0  0  0  0  0  0  0  0  0  0  0
   -2.5929    0.0757    1.4321 H   0  0  0  0  0  0  0  0  0  0  0  0
   -3.5538    0.4726   -0.0182 H   0  0  0  0  0  0  0  0  0  0  0  0
   -2.3086   -1.7733   -1.1016 H   0  0  0  0  0  0  0  0  0  0  0  0
   -1.5296   -1.8721    0.4984 H   0  0  0  0  0  0  0  0  0  0  0  0
   -0.5448   -1.9649   -0.9870 H   0  0  0  0  0  0  0  0  0  0  0  0
  1  4  1  0  0  0  0
  1  5  1  0  0  0  0
  1  6  1  0  0  0  0
  2  7  1  0  0  0  0
  3  7  2  0  0  0  0
  4  7  1  0  0  0  0
  4  8  1  0  0  0  0
  4  9  1  0  0  0  0
  5 10  1  0  0  0  0
  5 11  1  0  0  0  0
  5 12  1  0  0  0  0
  6 13  1  0  0  0  0
  6 14  1  0  0  0  0
  6 15  1  0  0  0  0
M  CHG  2   1   1   2  -1
M  END
> <PUBCHEM_COMPOUND_CID>
160765

> <PUBCHEM_CONFORMER_RMSD>
0.4

> <PUBCHEM_CONFORMER_DIVERSEORDER>
1
2
3
4

> <PUBCHEM_EFFECTIVE_ROTOR_COUNT>
2

> <PUBCHEM_PHARMACOPHORE_FEATURES>
3
1 2 acceptor
1 3 acceptor
3 2 3 7 anion

> <PUBCHEM_HEAVY_ATOM_COUNT>
7

> <PUBCHEM_ATOM_DEF_STEREO_COUNT>
0

> <PUBCHEM_ATOM_UDEF_STEREO_COUNT>
0

> <PUBCHEM_BOND_DEF_STEREO_COUNT>
0

> <PUBCHEM_BOND_UDEF_STEREO_COUNT>
0

> <PUBCHEM_ISOTOPIC_ATOM_COUNT>
0

> <PUBCHEM_COMPONENT_COUNT>
1

> <PUBCHEM_CACTVS_TAUTO_COUNT>
1

> <PUBCHEM_CONFORMER_ID>
000273FD00000001

> <PUBCHEM_MMFF94_ENERGY>
7.806

> <PUBCHEM_FEATURE_SELFOVERLAP>
15.277

> <PUBCHEM_SHAPE_FINGERPRINT>
15310529 11 17749113261680365692
16714656 1 18413674604047894725
18185500 45 18336537304575004286
21040471 1 18059859415734529929
24536 1 17095793408190136485
29004967 10 17531525391111714648

> <PUBCHEM_SHAPE_MULTIPOLES>
136.17
3.27
1.23
0.92
0.16
0.5
-0.06
-0.28
0.22
0.46
-0.05
-0.12
-0.09
-0.45

> <PUBCHEM_SHAPE_SELFOVERLAP>
231.465

> <PUBCHEM_SHAPE_VOLUME>
93.1

> <PUBCHEM_COORDINATE_TYPE>
2
5
10

$$$$
