5318432
  -OEChem-10241303063D

 30 33  0     0  0  0  0  0  0999 V2000
    1.2241   -2.3358   -0.0006 O   0  0  0  0  0  0  0  0  0  0  0  0
   -1.2242    2.3358   -0.0006 O   0  0  0  0  0  0  0  0  0  0  0  0
    1.4834    1.1500    0.0005 N   0  0  0  0  0  0  0  0  0  0  0  0
   -1.4834   -1.1501    0.0005 N   0  0  0  0  0  0  0  0  0  0  0  0
    0.6651    0.0490    0.0004 C   0  0  0  0  0  0  0  0  0  0  0  0
   -0.6650   -0.0491    0.0005 C   0  0  0  0  0  0  0  0  0  0  0  0
    2.9254   -0.6379    0.0005 C   0  0  0  0  0  0  0  0  0  0  0  0
   -2.9253    0.6379    0.0006 C   0  0  0  0  0  0  0  0  0  0  0  0
    2.8164    0.7594    0.0006 C   0  0  0  0  0  0  0  0  0  0  0  0
   -2.8164   -0.7594    0.0006 C   0  0  0  0  0  0  0  0  0  0  0  0
    1.5503   -1.1685    0.0005 C   0  0  0  0  0  0  0  0  0  0  0  0
   -1.5504    1.1685    0.0005 C   0  0  0  0  0  0  0  0  0  0  0  0
    4.1337   -1.3017    0.0000 C   0  0  0  0  0  0  0  0  0  0  0  0
   -4.1337    1.3017    0.0001 C   0  0  0  0  0  0  0  0  0  0  0  0
    3.9523    1.5415   -0.0004 C   0  0  0  0  0  0  0  0  0  0  0  0
   -3.9523   -1.5415   -0.0004 C   0  0  0  0  0  0  0  0  0  0  0  0
    5.2837   -0.5114   -0.0006 C   0  0  0  0  0  0  0  0  0  0  0  0
   -5.2837    0.5114   -0.0006 C   0  0  0  0  0  0  0  0  0  0  0  0
    5.1945    0.8951   -0.0010 C   0  0  0  0  0  0  0  0  0  0  0  0
   -5.1944   -0.8952   -0.0010 C   0  0  0  0  0  0  0  0  0  0  0  0
    1.1484    2.0988    0.0016 H   0  0  0  0  0  0  0  0  0  0  0  0
   -1.1484   -2.0989    0.0016 H   0  0  0  0  0  0  0  0  0  0  0  0
    4.1963   -2.3831    0.0000 H   0  0  0  0  0  0  0  0  0  0  0  0
   -4.1963    2.3831    0.0000 H   0  0  0  0  0  0  0  0  0  0  0  0
    3.8949    2.6246   -0.0008 H   0  0  0  0  0  0  0  0  0  0  0  0
   -3.8949   -2.6245   -0.0009 H   0  0  0  0  0  0  0  0  0  0  0  0
    6.2624   -0.9841   -0.0011 H   0  0  0  0  0  0  0  0  0  0  0  0
   -6.2624    0.9840   -0.0011 H   0  0  0  0  0  0  0  0  0  0  0  0
    6.1065    1.4867   -0.0017 H   0  0  0  0  0  0  0  0  0  0  0  0
   -6.1065   -1.4867   -0.0018 H   0  0  0  0  0  0  0  0  0  0  0  0
  1 11  2  0  0  0  0
  2 12  2  0  0  0  0
  3  5  1  0  0  0  0
  3  9  1  0  0  0  0
  3 21  1  0  0  0  0
  4  6  1  0  0  0  0
  4 10  1  0  0  0  0
  4 22  1  0  0  0  0
  5  6  2  0  0  0  0
  5 11  1  0  0  0  0
  6 12  1  0  0  0  0
  7  9  1  0  0  0  0
  7 11  1  0  0  0  0
  7 13  2  0  0  0  0
  8 10  1  0  0  0  0
  8 12  1  0  0  0  0
  8 14  2  0  0  0  0
  9 15  2  0  0  0  0
 10 16  2  0  0  0  0
 13 17  1  0  0  0  0
 13 23  1  0  0  0  0
 14 18  1  0  0  0  0
 14 24  1  0  0  0  0
 15 19  1  0  0  0  0
 15 25  1  0  0  0  0
 16 20  1  0  0  0  0
 16 26  1  0  0  0  0
 17 19  2  0  0  0  0
 17 27  1  0  0  0  0
 18 20  2  0  0  0  0
 18 28  1  0  0  0  0
 19 29  1  0  0  0  0
 20 30  1  0  0  0  0
M  END
> <PUBCHEM_COMPOUND_CID>
5318432

> <PUBCHEM_CONFORMER_RMSD>
0.6

> <PUBCHEM_CONFORMER_DIVERSEORDER>
1

> <PUBCHEM_MMFF94_PARTIAL_CHARGES>
30
1 -0.57
10 0.1
11 0.47
12 0.47
13 -0.15
14 -0.15
15 -0.15
16 -0.15
17 -0.15
18 -0.15
19 -0.15
2 -0.57
20 -0.15
21 0.4
22 0.4
23 0.15
24 0.15
25 0.15
26 0.15
27 0.15
28 0.15
29 0.15
3 -0.6
30 0.15
4 -0.6
5 0.11
6 0.11
7 0.09
8 0.09
9 0.1

> <PUBCHEM_EFFECTIVE_ROTOR_COUNT>
0.4

> <PUBCHEM_PHARMACOPHORE_FEATURES>
10
1 1 acceptor
1 2 acceptor
1 3 cation
1 3 donor
1 4 cation
1 4 donor
5 3 5 7 9 11 rings
5 4 6 8 10 12 rings
6 7 9 13 15 17 19 rings
6 8 10 14 16 18 20 rings

> <PUBCHEM_HEAVY_ATOM_COUNT>
20

> <PUBCHEM_ATOM_DEF_STEREO_COUNT>
0

> <PUBCHEM_ATOM_UDEF_STEREO_COUNT>
0

> <PUBCHEM_BOND_DEF_STEREO_COUNT>
1

> <PUBCHEM_BOND_UDEF_STEREO_COUNT>
0

> <PUBCHEM_ISOTOPIC_ATOM_COUNT>
0

> <PUBCHEM_COMPONENT_COUNT>
1

> <PUBCHEM_CACTVS_TAUTO_COUNT>
17

> <PUBCHEM_CONFORMER_ID>
0051272000000001

> <PUBCHEM_MMFF94_ENERGY>
82.1519

> <PUBCHEM_FEATURE_SELFOVERLAP>
50.933

> <PUBCHEM_SHAPE_FINGERPRINT>
10 15 18338786932259202392
10616163 171 18411982481396645279
11578080 2 16880182304862172383
12107183 9 17689997834324056272
12236239 1 18410855464423129117
12403259 415 18410846673079326492
13167823 11 18410571786154874674
13288520 33 18412265030056495055
13533116 47 13973697088069837596
13862211 1 18410851074987995887
14341114 176 18409454673882774098
14528608 73 18411419544185116556
15196674 1 18410573989446418433
15536298 74 18413108350916339766
15788980 27 18261114075395487731
17834072 33 18341611537873374718
17844677 252 18411989060917147648
1813 80 17167866348167195861
18681886 176 18411978100867100416
19489759 90 16588020204358113109
200 152 18201998828760113473
20645477 70 18342177726707274334
21267235 1 18410582785645195535
21421861 104 17898004638078509107
21709351 56 18334289872721980148
23402539 116 18411131450589982231
23402655 69 18342455932701760407
23557571 272 18342463616525139437
23559900 14 18411414025083809704
239999 70 18272093777832480566
26918003 58 18040998461980672363
2871803 45 18335136475300796302
3004659 81 18334859399024588054
335352 9 18410573950791713214
34797466 226 17203336662162626356
34934 24 18409725137059261951
350125 39 18410292515124277276
351380 180 18409166619269302210
3545911 37 18410013229952776341
4073 2 18040722505894863418
4214541 1 18410855434627734149
474 4 17749677384592654948
474229 33 18411136961054440046
4990 188 18059583481503034310
5104073 3 18410573976561517496
5283173 99 18114733829448910661
542803 24 18410011043793245669
59755656 215 18412269402671287086
67856867 119 18262238949148609908
7495541 125 17775280612140483440
77779 3 18411138034616500228
9709674 26 18410581655990065175

> <PUBCHEM_SHAPE_MULTIPOLES>
389.89
12.18
1.91
0.6
0
0
0
0
0
0
0
0
0
0

> <PUBCHEM_SHAPE_SELFOVERLAP>
893.465

> <PUBCHEM_SHAPE_VOLUME>
204.1

> <PUBCHEM_COORDINATE_TYPE>
2
5
10

$$$$
