5318057
  -OEChem-10241302513D

 55 59  0     1  0  0  0  0  0999 V2000
   -1.7783    1.1878    0.6712 O   0  0  0  0  0  0  0  0  0  0  0  0
   -6.0523   -0.7865   -0.3570 O   0  0  0  0  0  0  0  0  0  0  0  0
    5.8341   -0.5075    0.9528 O   0  0  0  0  0  0  0  0  0  0  0  0
    2.2553    1.1762   -1.8353 O   0  0  0  0  0  0  0  0  0  0  0  0
    0.2944    0.1269   -0.0768 C   0  0  1  0  0  0  0  0  0  0  0  0
   -0.3996   -1.2288   -0.2445 C   0  0  0  0  0  0  0  0  0  0  0  0
   -0.4239    0.8971    1.0328 C   0  0  0  0  0  0  0  0  0  0  0  0
   -1.8955   -1.0620   -0.2528 C   0  0  0  0  0  0  0  0  0  0  0  0
    1.7818   -0.0226    0.1638 C   0  0  0  0  0  0  0  0  0  0  0  0
   -2.5062    0.1159    0.2099 C   0  0  0  0  0  0  0  0  0  0  0  0
   -3.9078    0.2535    0.1769 C   0  0  0  0  0  0  0  0  0  0  0  0
    2.7105    0.5121   -0.7316 C   0  0  0  0  0  0  0  0  0  0  0  0
   -6.7591    0.4155    0.0099 C   0  0  0  0  0  0  0  0  0  0  0  0
   -4.6870   -0.8084   -0.2937 C   0  0  0  0  0  0  0  0  0  0  0  0
   -2.6963   -2.1156   -0.7080 C   0  0  0  0  0  0  0  0  0  0  0  0
    4.0832    0.3668   -0.4964 C   0  0  0  0  0  0  0  0  0  0  0  0
    2.2215   -0.7037    1.2976 C   0  0  0  0  0  0  0  0  0  0  0  0
    6.8505    0.0104    0.0678 C   0  0  0  0  0  0  0  0  0  0  0  0
    4.5176   -0.3171    0.6409 C   0  0  0  0  0  0  0  0  0  0  0  0
   -4.0830   -1.9896   -0.7284 C   0  0  0  0  0  0  0  0  0  0  0  0
   -4.5772    1.4674    0.6297 C   0  0  0  0  0  0  0  0  0  0  0  0
   -5.9072    1.5375    0.5473 C   0  0  0  0  0  0  0  0  0  0  0  0
    3.5872   -0.8511    1.5366 C   0  0  0  0  0  0  0  0  0  0  0  0
    5.0564    0.9201   -1.4220 C   0  0  0  0  0  0  0  0  0  0  0  0
    6.3522    0.7495   -1.1519 C   0  0  0  0  0  0  0  0  0  0  0  0
   -7.7801    0.0021    1.0765 C   0  0  0  0  0  0  0  0  0  0  0  0
   -7.4927    0.8924   -1.2490 C   0  0  0  0  0  0  0  0  0  0  0  0
    7.6876   -1.1941   -0.3782 C   0  0  0  0  0  0  0  0  0  0  0  0
    7.7143    0.9557    0.9117 C   0  0  0  0  0  0  0  0  0  0  0  0
    0.1187    0.6843   -1.0070 H   0  0  0  0  0  0  0  0  0  0  0  0
   -0.1487   -1.9185    0.5705 H   0  0  0  0  0  0  0  0  0  0  0  0
   -0.0672   -1.6941   -1.1813 H   0  0  0  0  0  0  0  0  0  0  0  0
   -0.4221    0.3605    1.9903 H   0  0  0  0  0  0  0  0  0  0  0  0
    0.0716    1.8594    1.2065 H   0  0  0  0  0  0  0  0  0  0  0  0
   -2.2419   -3.0405   -1.0544 H   0  0  0  0  0  0  0  0  0  0  0  0
    1.5202   -1.1240    2.0129 H   0  0  0  0  0  0  0  0  0  0  0  0
   -4.6887   -2.8171   -1.0888 H   0  0  0  0  0  0  0  0  0  0  0  0
   -4.0031    2.2986    1.0208 H   0  0  0  0  0  0  0  0  0  0  0  0
   -6.4049    2.4461    0.8776 H   0  0  0  0  0  0  0  0  0  0  0  0
    3.9207   -1.3826    2.4241 H   0  0  0  0  0  0  0  0  0  0  0  0
    4.7652    1.4765   -2.3028 H   0  0  0  0  0  0  0  0  0  0  0  0
    7.0894    1.1655   -1.8345 H   0  0  0  0  0  0  0  0  0  0  0  0
   -7.2759   -0.3837    1.9708 H   0  0  0  0  0  0  0  0  0  0  0  0
   -8.4220    0.8375    1.3773 H   0  0  0  0  0  0  0  0  0  0  0  0
   -8.4206   -0.8092    0.7106 H   0  0  0  0  0  0  0  0  0  0  0  0
   -8.1202    1.7685   -1.0518 H   0  0  0  0  0  0  0  0  0  0  0  0
   -6.7804    1.1510   -2.0419 H   0  0  0  0  0  0  0  0  0  0  0  0
   -8.1291    0.0972   -1.6549 H   0  0  0  0  0  0  0  0  0  0  0  0
    8.5371   -0.8959   -1.0023 H   0  0  0  0  0  0  0  0  0  0  0  0
    8.0734   -1.7440    0.4883 H   0  0  0  0  0  0  0  0  0  0  0  0
    7.0762   -1.9055   -0.9465 H   0  0  0  0  0  0  0  0  0  0  0  0
    8.1001    0.4429    1.8007 H   0  0  0  0  0  0  0  0  0  0  0  0
    8.5653    1.3503    0.3458 H   0  0  0  0  0  0  0  0  0  0  0  0
    7.1220    1.8029    1.2781 H   0  0  0  0  0  0  0  0  0  0  0  0
    2.8742    1.0592   -2.5731 H   0  0  0  0  0  0  0  0  0  0  0  0
  1  7  1  0  0  0  0
  1 10  1  0  0  0  0
  2 13  1  0  0  0  0
  2 14  1  0  0  0  0
  3 18  1  0  0  0  0
  3 19  1  0  0  0  0
  4 12  1  0  0  0  0
  4 55  1  0  0  0  0
  5  6  1  0  0  0  0
  5  7  1  0  0  0  0
  5  9  1  0  0  0  0
  5 30  1  0  0  0  0
  6  8  1  0  0  0  0
  6 31  1  0  0  0  0
  6 32  1  0  0  0  0
  7 33  1  0  0  0  0
  7 34  1  0  0  0  0
  8 10  2  0  0  0  0
  8 15  1  0  0  0  0
  9 12  2  0  0  0  0
  9 17  1  0  0  0  0
 10 11  1  0  0  0  0
 11 14  2  0  0  0  0
 11 21  1  0  0  0  0
 12 16  1  0  0  0  0
 13 22  1  0  0  0  0
 13 26  1  0  0  0  0
 13 27  1  0  0  0  0
 14 20  1  0  0  0  0
 15 20  2  0  0  0  0
 15 35  1  0  0  0  0
 16 19  2  0  0  0  0
 16 24  1  0  0  0  0
 17 23  2  0  0  0  0
 17 36  1  0  0  0  0
 18 25  1  0  0  0  0
 18 28  1  0  0  0  0
 18 29  1  0  0  0  0
 19 23  1  0  0  0  0
 20 37  1  0  0  0  0
 21 22  2  0  0  0  0
 21 38  1  0  0  0  0
 22 39  1  0  0  0  0
 23 40  1  0  0  0  0
 24 25  2  0  0  0  0
 24 41  1  0  0  0  0
 25 42  1  0  0  0  0
 26 43  1  0  0  0  0
 26 44  1  0  0  0  0
 26 45  1  0  0  0  0
 27 46  1  0  0  0  0
 27 47  1  0  0  0  0
 27 48  1  0  0  0  0
 28 49  1  0  0  0  0
 28 50  1  0  0  0  0
 28 51  1  0  0  0  0
 29 52  1  0  0  0  0
 29 53  1  0  0  0  0
 29 54  1  0  0  0  0
M  END
> <PUBCHEM_COMPOUND_CID>
5318057

> <PUBCHEM_CONFORMER_RMSD>
0.8

> <PUBCHEM_CONFORMER_DIVERSEORDER>
2
11
1
10
7
4
3
9
8
6
5

> <PUBCHEM_MMFF94_PARTIAL_CHARGES>
34
1 -0.36
10 0.08
11 0.03
12 0.08
13 0.42
14 0.08
15 -0.15
16 0.03
17 -0.15
18 0.42
19 0.08
2 -0.36
20 -0.15
21 -0.18
22 -0.29
23 -0.15
24 -0.18
25 -0.29
3 -0.36
35 0.15
36 0.15
37 0.15
38 0.15
39 0.15
4 -0.53
40 0.15
41 0.15
42 0.15
5 0.14
55 0.45
6 0.14
7 0.28
8 -0.14
9 -0.14

> <PUBCHEM_EFFECTIVE_ROTOR_COUNT>
2.6

> <PUBCHEM_PHARMACOPHORE_FEATURES>
11
1 1 acceptor
1 2 acceptor
1 3 acceptor
1 4 donor
3 13 26 27 hydrophobe
3 18 28 29 hydrophobe
6 1 5 6 7 8 10 rings
6 2 11 13 14 21 22 rings
6 3 16 18 19 24 25 rings
6 8 10 11 14 15 20 rings
6 9 12 16 17 19 23 rings

> <PUBCHEM_HEAVY_ATOM_COUNT>
29

> <PUBCHEM_ATOM_DEF_STEREO_COUNT>
0

> <PUBCHEM_ATOM_UDEF_STEREO_COUNT>
1

> <PUBCHEM_BOND_DEF_STEREO_COUNT>
0

> <PUBCHEM_BOND_UDEF_STEREO_COUNT>
0

> <PUBCHEM_ISOTOPIC_ATOM_COUNT>
0

> <PUBCHEM_COMPONENT_COUNT>
1

> <PUBCHEM_CACTVS_TAUTO_COUNT>
3

> <PUBCHEM_CONFORMER_ID>
005125A900000002

> <PUBCHEM_MMFF94_ENERGY>
104.1334

> <PUBCHEM_FEATURE_SELFOVERLAP>
55.909

> <PUBCHEM_SHAPE_FINGERPRINT>
10 15 18333734607483123683
10050765 1 17984696981538708441
10299344 5 18261111872061629098
10411042 1 17840016675253379143
10670039 82 18202002084630751953
11135926 11 18336256882108582695
11315181 36 17060060376052625643
11524674 6 16272205301721001287
11719270 70 17346600751588620934
12236239 1 18334576854400573618
14170010 4 16588026827350593148
14251764 18 18187364341816149679
14251764 46 15769775753847287866
14294032 229 18268155245013698417
14856354 85 18409732893986807959
15021287 119 17894636959054902101
15183329 4 18335420162175063261
15328829 1 18260548913665888384
15419008 47 16773794783876987393
15461852 350 17489298720551947831
1577012 14 18260827128625459686
15840311 113 18261395572665148044
15849732 13 18260830392773886710
18608769 82 18201722903456792239
18681886 176 18272927266963194768
20511986 3 18335128821595234956
21033648 29 17060041680065494850
21150785 3 15626221320991381413
21267235 1 18272651299073768515
21521721 280 15864075390700851212
21623969 137 15936408927196362738
21792961 116 16271938091200831872
22224240 67 15357698599771937289
23559900 14 17774996937982495737
23569943 247 17825099317267698770
249057 3 18411981385863142357
29717793 49 18408890638083400974
3004659 81 18413389856137513976
3178227 256 15791728616704859152
335352 9 18201432593826773197
34797466 226 17775289383218432728
4073 2 18335423512846283274
4325135 7 18334012782959593268
4339292 15 18263081176089591035
437815 12 16415478268158346793
4403749 210 15840407372263539574
5265222 85 18129942406874081183
5283156 175 18411420592537016250
5385378 56 17916597440736154031
5758199 1 18040433304836106298
5969126 39 13254802313364284451
59755656 215 17561085782636252494
7226269 152 18060138730617095257

> <PUBCHEM_SHAPE_MULTIPOLES>
573.33
23.68
1.54
1.28
2.89
0.42
0.1
-3.52
0.55
-1.4
0.16
0.92
-0.18
-1.02

> <PUBCHEM_SHAPE_SELFOVERLAP>
1274.302

> <PUBCHEM_SHAPE_VOLUME>
306.9

> <PUBCHEM_COORDINATE_TYPE>
2
5
10

$$$$
15228661
  -OEChem-10241302513D

 55 59  0     1  0  0  0  0  0999 V2000
   -1.7782    1.1875    0.6710 O   0  0  0  0  0  0  0  0  0  0  0  0
   -6.0527   -0.7859   -0.3565 O   0  0  0  0  0  0  0  0  0  0  0  0
    5.8339   -0.5094    0.9518 O   0  0  0  0  0  0  0  0  0  0  0  0
    2.2555    1.1754   -1.8359 O   0  0  0  0  0  0  0  0  0  0  0  0
    0.2943    0.1261   -0.0773 C   0  0  1  0  0  0  0  0  0  0  0  0
   -0.4000   -1.2293   -0.2447 C   0  0  0  0  0  0  0  0  0  0  0  0
   -0.4238    0.8966    1.0324 C   0  0  0  0  0  0  0  0  0  0  0  0
   -1.8959   -1.0623   -0.2529 C   0  0  0  0  0  0  0  0  0  0  0  0
    1.7817   -0.0235    0.1632 C   0  0  0  0  0  0  0  0  0  0  0  0
   -2.5063    0.1158    0.2098 C   0  0  0  0  0  0  0  0  0  0  0  0
   -3.9079    0.2537    0.1769 C   0  0  0  0  0  0  0  0  0  0  0  0
    2.7105    0.5104   -0.7326 C   0  0  0  0  0  0  0  0  0  0  0  0
   -6.7591    0.4162    0.0104 C   0  0  0  0  0  0  0  0  0  0  0  0
   -4.6874   -0.8081   -0.2934 C   0  0  0  0  0  0  0  0  0  0  0  0
   -2.6969   -2.1158   -0.7080 C   0  0  0  0  0  0  0  0  0  0  0  0
    4.0830    0.3648   -0.4976 C   0  0  0  0  0  0  0  0  0  0  0  0
    2.2213   -0.7047    1.2969 C   0  0  0  0  0  0  0  0  0  0  0  0
    6.8504    0.0126    0.0690 C   0  0  0  0  0  0  0  0  0  0  0  0
    4.5174   -0.3188    0.6398 C   0  0  0  0  0  0  0  0  0  0  0  0
   -4.0836   -1.9894   -0.7282 C   0  0  0  0  0  0  0  0  0  0  0  0
   -4.5769    1.4677    0.6298 C   0  0  0  0  0  0  0  0  0  0  0  0
   -5.9070    1.5382    0.5476 C   0  0  0  0  0  0  0  0  0  0  0  0
    3.5871   -0.8525    1.5356 C   0  0  0  0  0  0  0  0  0  0  0  0
    5.0563    0.9176   -1.4235 C   0  0  0  0  0  0  0  0  0  0  0  0
    6.3520    0.7491   -1.1522 C   0  0  0  0  0  0  0  0  0  0  0  0
   -7.7801    0.0031    1.0772 C   0  0  0  0  0  0  0  0  0  0  0  0
   -7.4927    0.8932   -1.2485 C   0  0  0  0  0  0  0  0  0  0  0  0
    7.7107    0.9598    0.9147 C   0  0  0  0  0  0  0  0  0  0  0  0
    7.6943   -1.1882   -0.3746 C   0  0  0  0  0  0  0  0  0  0  0  0
    0.1186    0.6836   -1.0075 H   0  0  0  0  0  0  0  0  0  0  0  0
   -0.1491   -1.9190    0.5703 H   0  0  0  0  0  0  0  0  0  0  0  0
   -0.0678   -1.6948   -1.1815 H   0  0  0  0  0  0  0  0  0  0  0  0
   -0.4219    0.3600    1.9899 H   0  0  0  0  0  0  0  0  0  0  0  0
    0.0719    1.8588    1.2060 H   0  0  0  0  0  0  0  0  0  0  0  0
   -2.2427   -3.0408   -1.0544 H   0  0  0  0  0  0  0  0  0  0  0  0
    1.5200   -1.1247    2.0124 H   0  0  0  0  0  0  0  0  0  0  0  0
   -4.6896   -2.8168   -1.0885 H   0  0  0  0  0  0  0  0  0  0  0  0
   -4.0026    2.2987    1.0208 H   0  0  0  0  0  0  0  0  0  0  0  0
   -6.4044    2.4469    0.8779 H   0  0  0  0  0  0  0  0  0  0  0  0
    3.9205   -1.3841    2.4231 H   0  0  0  0  0  0  0  0  0  0  0  0
    4.7651    1.4723   -2.3053 H   0  0  0  0  0  0  0  0  0  0  0  0
    7.0892    1.1651   -1.8348 H   0  0  0  0  0  0  0  0  0  0  0  0
   -7.2758   -0.3828    1.9714 H   0  0  0  0  0  0  0  0  0  0  0  0
   -8.4216    0.8387    1.3780 H   0  0  0  0  0  0  0  0  0  0  0  0
   -8.4207   -0.8080    0.7114 H   0  0  0  0  0  0  0  0  0  0  0  0
   -8.1201    1.7695   -1.0513 H   0  0  0  0  0  0  0  0  0  0  0  0
   -6.7805    1.1516   -2.0415 H   0  0  0  0  0  0  0  0  0  0  0  0
   -8.1294    0.0982   -1.6543 H   0  0  0  0  0  0  0  0  0  0  0  0
    7.1155    1.8053    1.2803 H   0  0  0  0  0  0  0  0  0  0  0  0
    8.0965    0.4478    1.8041 H   0  0  0  0  0  0  0  0  0  0  0  0
    8.5615    1.3570    0.3501 H   0  0  0  0  0  0  0  0  0  0  0  0
    7.0875   -1.9022   -0.9445 H   0  0  0  0  0  0  0  0  0  0  0  0
    8.5441   -0.8862   -0.9967 H   0  0  0  0  0  0  0  0  0  0  0  0
    8.0802   -1.7364    0.4928 H   0  0  0  0  0  0  0  0  0  0  0  0
    2.8735    1.0569   -2.5742 H   0  0  0  0  0  0  0  0  0  0  0  0
  1  7  1  0  0  0  0
  1 10  1  0  0  0  0
  2 13  1  0  0  0  0
  2 14  1  0  0  0  0
  3 18  1  0  0  0  0
  3 19  1  0  0  0  0
  4 12  1  0  0  0  0
  4 55  1  0  0  0  0
  5  6  1  0  0  0  0
  5  7  1  0  0  0  0
  5  9  1  0  0  0  0
  5 30  1  0  0  0  0
  6  8  1  0  0  0  0
  6 31  1  0  0  0  0
  6 32  1  0  0  0  0
  7 33  1  0  0  0  0
  7 34  1  0  0  0  0
  8 10  2  0  0  0  0
  8 15  1  0  0  0  0
  9 12  2  0  0  0  0
  9 17  1  0  0  0  0
 10 11  1  0  0  0  0
 11 14  2  0  0  0  0
 11 21  1  0  0  0  0
 12 16  1  0  0  0  0
 13 22  1  0  0  0  0
 13 26  1  0  0  0  0
 13 27  1  0  0  0  0
 14 20  1  0  0  0  0
 15 20  2  0  0  0  0
 15 35  1  0  0  0  0
 16 19  2  0  0  0  0
 16 24  1  0  0  0  0
 17 23  2  0  0  0  0
 17 36  1  0  0  0  0
 18 25  1  0  0  0  0
 18 28  1  0  0  0  0
 18 29  1  0  0  0  0
 19 23  1  0  0  0  0
 20 37  1  0  0  0  0
 21 22  2  0  0  0  0
 21 38  1  0  0  0  0
 22 39  1  0  0  0  0
 23 40  1  0  0  0  0
 24 25  2  0  0  0  0
 24 41  1  0  0  0  0
 25 42  1  0  0  0  0
 26 43  1  0  0  0  0
 26 44  1  0  0  0  0
 26 45  1  0  0  0  0
 27 46  1  0  0  0  0
 27 47  1  0  0  0  0
 27 48  1  0  0  0  0
 28 49  1  0  0  0  0
 28 50  1  0  0  0  0
 28 51  1  0  0  0  0
 29 52  1  0  0  0  0
 29 53  1  0  0  0  0
 29 54  1  0  0  0  0
M  END
> <PUBCHEM_COMPOUND_CID>
15228661

> <PUBCHEM_CONFORMER_RMSD>
0.8

> <PUBCHEM_CONFORMER_DIVERSEORDER>
1
8
7
5
3
6
4
2

> <PUBCHEM_MMFF94_PARTIAL_CHARGES>
34
1 -0.36
10 0.08
11 0.03
12 0.08
13 0.42
14 0.08
15 -0.15
16 0.03
17 -0.15
18 0.42
19 0.08
2 -0.36
20 -0.15
21 -0.18
22 -0.29
23 -0.15
24 -0.18
25 -0.29
3 -0.36
35 0.15
36 0.15
37 0.15
38 0.15
39 0.15
4 -0.53
40 0.15
41 0.15
42 0.15
5 0.14
55 0.45
6 0.14
7 0.28
8 -0.14
9 -0.14

> <PUBCHEM_EFFECTIVE_ROTOR_COUNT>
2.6

> <PUBCHEM_PHARMACOPHORE_FEATURES>
11
1 1 acceptor
1 2 acceptor
1 3 acceptor
1 4 donor
3 13 26 27 hydrophobe
3 18 28 29 hydrophobe
6 1 5 6 7 8 10 rings
6 2 11 13 14 21 22 rings
6 3 16 18 19 24 25 rings
6 8 10 11 14 15 20 rings
6 9 12 16 17 19 23 rings

> <PUBCHEM_HEAVY_ATOM_COUNT>
29

> <PUBCHEM_ATOM_DEF_STEREO_COUNT>
1

> <PUBCHEM_ATOM_UDEF_STEREO_COUNT>
0

> <PUBCHEM_BOND_DEF_STEREO_COUNT>
0

> <PUBCHEM_BOND_UDEF_STEREO_COUNT>
0

> <PUBCHEM_ISOTOPIC_ATOM_COUNT>
0

> <PUBCHEM_COMPONENT_COUNT>
1

> <PUBCHEM_CACTVS_TAUTO_COUNT>
3

> <PUBCHEM_CONFORMER_ID>
00E85EF500000001

> <PUBCHEM_MMFF94_ENERGY>
104.1384

> <PUBCHEM_FEATURE_SELFOVERLAP>
55.909

> <PUBCHEM_SHAPE_FINGERPRINT>
10 15 18333734607488404939
10050765 1 17984696981538714937
10299344 5 18261111872072178602
10411042 1 17840016675253379143
10670039 82 18202283559617999137
11135926 11 18336256882108582695
11315181 36 17060622222241643411
11524674 6 16271923826802319391
11719270 70 17346600751588614438
12236239 1 18334295379418588198
14170010 4 16588026827350586652
14251764 18 18187364341816149679
14251764 46 15626504990706845202
14294032 229 18268155245013691913
14856354 85 18409732893986807959
15021287 119 17894636959054895613
15131766 46 16663763511216434332
15183329 4 18335138687187809581
15328829 1 18260548913665875384
15419008 47 16845570903017338945
15461852 350 17489298720546673087
1577012 14 18260827128630740934
15840311 113 18333453166703088956
15849732 13 18260830392779167950
18608769 82 18201722903456792239
18681886 176 18272927266963194768
20511986 3 18335128821595228460
21033648 29 17060041680070769602
21150785 3 15770055029911597397
21267235 1 18272651299073762019
21521721 280 15864075390700851212
21623969 137 15936408927196362738
21792961 116 16271938091200831872
22224240 67 15357698599766656041
23559900 14 17774996942288025537
23569943 247 17824817842264607866
249057 3 18411699915176111269
29717793 49 18408890638083400974
3004659 81 18341612637538295184
3178227 256 15864067685735322024
335352 9 18273490187864701133
34797466 226 17775289383223707472
4073 2 18335423512846283274
4325135 7 18334012782959586772
4339292 15 18263362651071582907
437815 12 16415478268158346793
4403749 210 15840407372263546070
5265222 85 18129942406874081183
5283156 175 18411420592542291002
5385378 56 17916597440736154031
5758199 1 18040433304830844530
5969126 39 13254802313359009691
59755656 215 17561085782630977742
7226269 152 18060138730617095257

> <PUBCHEM_SHAPE_MULTIPOLES>
573.33
23.68
1.54
1.28
2.9
0.42
0.1
-3.53
0.54
-1.4
0.16
0.92
-0.18
-1.02

> <PUBCHEM_SHAPE_SELFOVERLAP>
1274.301

> <PUBCHEM_SHAPE_VOLUME>
307

> <PUBCHEM_COORDINATE_TYPE>
2
5
10

$$$$
