45091441
  -OEChem-10241303103D

 28 28  0     0  0  0  0  0  0999 V2000
    1.7048    0.5246    0.8057 O   0  0  0  0  0  0  0  0  0  0  0  0
   -3.6406   -0.0717   -0.4099 O   0  0  0  0  0  0  0  0  0  0  0  0
   -0.1525   -0.9154    0.3028 C   0  0  0  0  0  0  0  0  0  0  0  0
    0.3856    0.3556    0.5044 C   0  0  0  0  0  0  0  0  0  0  0  0
   -1.5055   -1.0591   -0.0044 C   0  0  0  0  0  0  0  0  0  0  0  0
   -2.3203    0.0681   -0.1101 C   0  0  0  0  0  0  0  0  0  0  0  0
   -0.4292    1.4828    0.3988 C   0  0  0  0  0  0  0  0  0  0  0  0
   -1.7820    1.3390    0.0916 C   0  0  0  0  0  0  0  0  0  0  0  0
    0.6776   -2.1079    0.4074 C   0  0  0  0  0  0  0  0  0  0  0  0
    2.4805    1.3041   -0.1017 C   0  0  0  0  0  0  0  0  0  0  0  0
    3.9009    0.8504   -0.0309 C   0  0  0  0  0  0  0  0  0  0  0  0
   -4.4152    1.1232   -0.5021 C   0  0  0  0  0  0  0  0  0  0  0  0
    0.5137   -3.2565   -0.2781 C   0  0  0  0  0  0  0  0  0  0  0  0
    4.5821    0.3627   -1.0735 C   0  0  0  0  0  0  0  0  0  0  0  0
   -1.9575   -2.0371   -0.1516 H   0  0  0  0  0  0  0  0  0  0  0  0
   -0.0265    2.4789    0.5623 H   0  0  0  0  0  0  0  0  0  0  0  0
   -2.3577    2.2560    0.0271 H   0  0  0  0  0  0  0  0  0  0  0  0
    1.5154   -2.0531    1.0989 H   0  0  0  0  0  0  0  0  0  0  0  0
    2.0921    1.2148   -1.1246 H   0  0  0  0  0  0  0  0  0  0  0  0
    2.4265    2.3567    0.1981 H   0  0  0  0  0  0  0  0  0  0  0  0
    4.4035    0.9288    0.9295 H   0  0  0  0  0  0  0  0  0  0  0  0
   -4.4567    1.6509    0.4568 H   0  0  0  0  0  0  0  0  0  0  0  0
   -5.4399    0.8258   -0.7477 H   0  0  0  0  0  0  0  0  0  0  0  0
   -4.0657    1.7675   -1.3160 H   0  0  0  0  0  0  0  0  0  0  0  0
    1.2013   -4.0813   -0.1206 H   0  0  0  0  0  0  0  0  0  0  0  0
   -0.2763   -3.3997   -1.0064 H   0  0  0  0  0  0  0  0  0  0  0  0
    4.1278    0.2648   -2.0532 H   0  0  0  0  0  0  0  0  0  0  0  0
    5.6145    0.0511   -0.9575 H   0  0  0  0  0  0  0  0  0  0  0  0
  1  4  1  0  0  0  0
  1 10  1  0  0  0  0
  2  6  1  0  0  0  0
  2 12  1  0  0  0  0
  3  4  2  0  0  0  0
  3  5  1  0  0  0  0
  3  9  1  0  0  0  0
  4  7  1  0  0  0  0
  5  6  2  0  0  0  0
  5 15  1  0  0  0  0
  6  8  1  0  0  0  0
  7  8  2  0  0  0  0
  7 16  1  0  0  0  0
  8 17  1  0  0  0  0
  9 13  2  0  0  0  0
  9 18  1  0  0  0  0
 10 11  1  0  0  0  0
 10 19  1  0  0  0  0
 10 20  1  0  0  0  0
 11 14  2  0  0  0  0
 11 21  1  0  0  0  0
 12 22  1  0  0  0  0
 12 23  1  0  0  0  0
 12 24  1  0  0  0  0
 13 25  1  0  0  0  0
 13 26  1  0  0  0  0
 14 27  1  0  0  0  0
 14 28  1  0  0  0  0
M  END
> <PUBCHEM_COMPOUND_CID>
45091441

> <PUBCHEM_CONFORMER_RMSD>
0.6

> <PUBCHEM_CONFORMER_DIVERSEORDER>
1
43
20
39
42
6
11
24
32
41
46
35
37
16
17
19
12
30
2
4
44
13
21
33
40
26
25
45
10
27
18
29
22
34
38
8
36
5
14
31
28
15
3
9
7
23

> <PUBCHEM_MMFF94_PARTIAL_CHARGES>
23
1 -0.36
10 0.42
11 -0.29
12 0.28
13 -0.3
14 -0.3
15 0.15
16 0.15
17 0.15
18 0.15
2 -0.36
21 0.15
25 0.15
26 0.15
27 0.15
28 0.15
3 0.03
4 0.08
5 -0.15
6 0.08
7 -0.15
8 -0.15
9 -0.18

> <PUBCHEM_EFFECTIVE_ROTOR_COUNT>
5

> <PUBCHEM_PHARMACOPHORE_FEATURES>
5
1 1 acceptor
1 13 hydrophobe
1 14 hydrophobe
1 2 acceptor
6 3 4 5 6 7 8 rings

> <PUBCHEM_HEAVY_ATOM_COUNT>
14

> <PUBCHEM_ATOM_DEF_STEREO_COUNT>
0

> <PUBCHEM_ATOM_UDEF_STEREO_COUNT>
0

> <PUBCHEM_BOND_DEF_STEREO_COUNT>
0

> <PUBCHEM_BOND_UDEF_STEREO_COUNT>
0

> <PUBCHEM_ISOTOPIC_ATOM_COUNT>
0

> <PUBCHEM_COMPONENT_COUNT>
1

> <PUBCHEM_CACTVS_TAUTO_COUNT>
1

> <PUBCHEM_CONFORMER_ID>
02B00A7100000001

> <PUBCHEM_MMFF94_ENERGY>
51.8129

> <PUBCHEM_FEATURE_SELFOVERLAP>
25.371

> <PUBCHEM_SHAPE_FINGERPRINT>
10726558 24 18408606958886322246
10756046 5 18054511292261203389
10922049 32 18335707173290934147
12592029 89 18260830371594663946
12644460 14 18190184490314839483
12716758 59 18268992175377814192
13380535 76 18335135384495258379
14911166 2 18413388760720406300
14993402 34 18260267477454912972
15207287 21 17775293785169118748
15775835 57 17967531294162672380
16945 1 18341879801963349089
18186145 218 18342736351264677088
187816 3 18201723968022865952
193761 8 17907294356118901353
200 152 16343712027770069716
20645476 183 17895477045914837010
20645477 56 18265614471505282856
20645477 70 18194387919674602863
20871999 31 18195247947614116910
21501502 16 18125437502014424841
21524375 3 18260263049322161528
22218785 32 18410014342713264078
22713019 99 18131075943675556676
23114952 82 17901088747072758757
23366157 5 17826237293783267450
23402539 116 18342450478499801380
23493267 7 17894911862303920905
23552423 10 18122902036711489211
25 1 18408599245362467833
2748010 2 17978496856839008049
3060560 45 18408316688085790380
3071541 37 18335980861512971083
366044 4 18409165536726540562
43471831 8 18409727327060215906
449060 62 18340765945192212105
4990 188 17988925582467261805
58779409 8 18338231690711936287
6138700 20 18266745667492001374
633830 44 18130779088173604229
7364860 26 18196931076235401615
81228 2 17617365629517960875
81539 233 18187358788180933699

> <PUBCHEM_SHAPE_MULTIPOLES>
276.37
6.96
2.48
0.81
1.7
2.61
0.05
-3.92
2.57
0.36
0.04
0.3
-0.05
0.04

> <PUBCHEM_SHAPE_SELFOVERLAP>
563.437

> <PUBCHEM_SHAPE_VOLUME>
161.2

> <PUBCHEM_COORDINATE_TYPE>
2
5
10

$$$$
