170779
  -OEChem-10241303043D

 51 57  0     1  0  0  0  0  0999 V2000
   -2.2027    2.6035    0.4909 O   0  0  0  0  0  0  0  0  0  0  0  0
    2.4494    3.2602    0.4181 O   0  0  0  0  0  0  0  0  0  0  0  0
   -1.7024   -2.3291    0.3123 N   0  3  1  0  0  0  0  0  0  0  0  0
    1.3447    1.2095    0.3822 N   0  0  0  0  0  0  0  0  0  0  0  0
    0.3922   -1.0307    0.3171 C   0  0  1  0  0  0  0  0  0  0  0  0
   -0.5073   -1.8728   -0.6080 C   0  0  2  0  0  0  0  0  0  0  0  0
    0.0580    0.4931    0.3734 C   0  0  2  0  0  0  0  0  0  0  0  0
   -0.7006    1.0978   -0.8178 C   0  0  1  0  0  0  0  0  0  0  0  0
   -1.7786    0.1550   -1.3747 C   0  0  1  0  0  0  0  0  0  0  0  0
   -1.0490   -1.1246   -1.8229 C   0  0  0  0  0  0  0  0  0  0  0  0
    0.1926   -1.7092    1.6790 C   0  0  0  0  0  0  0  0  0  0  0  0
   -1.2979   -1.9571    1.7524 C   0  0  0  0  0  0  0  0  0  0  0  0
   -3.0355   -1.6470   -0.0625 C   0  0  0  0  0  0  0  0  0  0  0  0
    1.8684   -0.9937   -0.0022 C   0  0  0  0  0  0  0  0  0  0  0  0
   -2.8799   -0.1892   -0.3952 C   0  0  0  0  0  0  0  0  0  0  0  0
   -1.1032    2.5404   -0.4264 C   0  0  2  0  0  0  0  0  0  0  0  0
    2.3843    0.3022    0.1214 C   0  0  0  0  0  0  0  0  0  0  0  0
   -1.8809   -3.8420    0.2067 C   0  0  0  0  0  0  0  0  0  0  0  0
    0.0597    3.2931    0.2774 C   0  0  0  0  0  0  0  0  0  0  0  0
    1.4177    2.5915    0.3655 C   0  0  0  0  0  0  0  0  0  0  0  0
   -3.6463    0.7479    0.1838 C   0  0  0  0  0  0  0  0  0  0  0  0
    2.7046   -2.0558   -0.3225 C   0  0  0  0  0  0  0  0  0  0  0  0
   -3.4553    2.2067   -0.0519 C   0  0  0  0  0  0  0  0  0  0  0  0
    3.7324    0.5619   -0.0758 C   0  0  0  0  0  0  0  0  0  0  0  0
    4.0629   -1.8054   -0.5227 C   0  0  0  0  0  0  0  0  0  0  0  0
    4.5729   -0.5064   -0.3977 C   0  0  0  0  0  0  0  0  0  0  0  0
    0.0004   -2.7883   -0.9330 H   0  0  0  0  0  0  0  0  0  0  0  0
   -0.4601    0.7404    1.3094 H   0  0  0  0  0  0  0  0  0  0  0  0
    0.0161    1.2289   -1.6464 H   0  0  0  0  0  0  0  0  0  0  0  0
   -2.2300    0.6100   -2.2661 H   0  0  0  0  0  0  0  0  0  0  0  0
   -1.7197   -1.7701   -2.4044 H   0  0  0  0  0  0  0  0  0  0  0  0
   -0.2220   -0.8742   -2.4996 H   0  0  0  0  0  0  0  0  0  0  0  0
    0.5429   -1.1028    2.5219 H   0  0  0  0  0  0  0  0  0  0  0  0
    0.7242   -2.6684    1.7306 H   0  0  0  0  0  0  0  0  0  0  0  0
   -1.5702   -2.7701    2.4327 H   0  0  0  0  0  0  0  0  0  0  0  0
   -1.8380   -1.0506    2.0436 H   0  0  0  0  0  0  0  0  0  0  0  0
   -3.7232   -1.8218    0.7740 H   0  0  0  0  0  0  0  0  0  0  0  0
   -3.4380   -2.1788   -0.9336 H   0  0  0  0  0  0  0  0  0  0  0  0
   -1.3802    3.0996   -1.3294 H   0  0  0  0  0  0  0  0  0  0  0  0
   -2.0848   -4.0909   -0.8387 H   0  0  0  0  0  0  0  0  0  0  0  0
   -0.9591   -4.3252    0.5437 H   0  0  0  0  0  0  0  0  0  0  0  0
   -2.7217   -4.1338    0.8429 H   0  0  0  0  0  0  0  0  0  0  0  0
   -0.2167    3.5709    1.3025 H   0  0  0  0  0  0  0  0  0  0  0  0
    0.2265    4.2330   -0.2647 H   0  0  0  0  0  0  0  0  0  0  0  0
   -4.4190    0.4558    0.8897 H   0  0  0  0  0  0  0  0  0  0  0  0
    2.3229   -3.0680   -0.4045 H   0  0  0  0  0  0  0  0  0  0  0  0
   -3.5588    2.4821   -1.1076 H   0  0  0  0  0  0  0  0  0  0  0  0
   -4.2306    2.7523    0.4964 H   0  0  0  0  0  0  0  0  0  0  0  0
    4.1519    1.5575    0.0029 H   0  0  0  0  0  0  0  0  0  0  0  0
    4.7320   -2.6244   -0.7720 H   0  0  0  0  0  0  0  0  0  0  0  0
    5.6332   -0.3285   -0.5570 H   0  0  0  0  0  0  0  0  0  0  0  0
  1 16  1  0  0  0  0
  1 23  1  0  0  0  0
  2 20  2  0  0  0  0
  3  6  1  0  0  0  0
  3 12  1  0  0  0  0
  3 13  1  0  0  0  0
  3 18  1  0  0  0  0
  4  7  1  0  0  0  0
  4 17  1  0  0  0  0
  4 20  1  0  0  0  0
  5  6  1  0  0  0  0
  5  7  1  0  0  0  0
  5 11  1  0  0  0  0
  5 14  1  0  0  0  0
  6 10  1  0  0  0  0
  6 27  1  0  0  0  0
  7  8  1  0  0  0  0
  7 28  1  0  0  0  0
  8  9  1  0  0  0  0
  8 16  1  0  0  0  0
  8 29  1  0  0  0  0
  9 10  1  0  0  0  0
  9 15  1  0  0  0  0
  9 30  1  0  0  0  0
 10 31  1  0  0  0  0
 10 32  1  0  0  0  0
 11 12  1  0  0  0  0
 11 33  1  0  0  0  0
 11 34  1  0  0  0  0
 12 35  1  0  0  0  0
 12 36  1  0  0  0  0
 13 15  1  0  0  0  0
 13 37  1  0  0  0  0
 13 38  1  0  0  0  0
 14 17  1  0  0  0  0
 14 22  2  0  0  0  0
 15 21  2  0  0  0  0
 16 19  1  0  0  0  0
 16 39  1  0  0  0  0
 17 24  2  0  0  0  0
 18 40  1  0  0  0  0
 18 41  1  0  0  0  0
 18 42  1  0  0  0  0
 19 20  1  0  0  0  0
 19 43  1  0  0  0  0
 19 44  1  0  0  0  0
 21 23  1  0  0  0  0
 21 45  1  0  0  0  0
 22 25  1  0  0  0  0
 22 46  1  0  0  0  0
 23 47  1  0  0  0  0
 23 48  1  0  0  0  0
 24 26  1  0  0  0  0
 24 49  1  0  0  0  0
 25 26  2  0  0  0  0
 25 50  1  0  0  0  0
 26 51  1  0  0  0  0
M  CHG  1   3   1
M  END
> <PUBCHEM_COMPOUND_CID>
170779

> <PUBCHEM_CONFORMER_RMSD>
0.6

> <PUBCHEM_CONFORMER_DIVERSEORDER>
1
2

> <PUBCHEM_MMFF94_PARTIAL_CHARGES>
28
1 -0.56
12 0.5
13 0.64
14 -0.14
15 -0.28
16 0.28
17 0.12
18 0.5
19 0.06
2 -0.57
20 0.57
21 -0.29
22 -0.15
23 0.42
24 -0.15
25 -0.15
26 -0.15
3 -1.01
4 -0.48
45 0.15
46 0.15
49 0.15
5 0.14
50 0.15
51 0.15
6 0.5
7 0.3
9 0.14

> <PUBCHEM_EFFECTIVE_ROTOR_COUNT>
1.4

> <PUBCHEM_PHARMACOPHORE_FEATURES>
10
1 1 acceptor
1 2 acceptor
1 3 cation
5 3 5 6 11 12 rings
5 4 5 7 14 17 rings
6 14 17 22 24 25 26 rings
6 3 6 9 10 13 15 rings
6 4 7 8 16 19 20 rings
6 5 6 7 8 9 10 rings
7 1 8 9 15 16 21 23 rings

> <PUBCHEM_HEAVY_ATOM_COUNT>
26

> <PUBCHEM_ATOM_DEF_STEREO_COUNT>
5

> <PUBCHEM_ATOM_UDEF_STEREO_COUNT>
2

> <PUBCHEM_BOND_DEF_STEREO_COUNT>
0

> <PUBCHEM_BOND_UDEF_STEREO_COUNT>
0

> <PUBCHEM_ISOTOPIC_ATOM_COUNT>
0

> <PUBCHEM_COMPONENT_COUNT>
1

> <PUBCHEM_CACTVS_TAUTO_COUNT>
1

> <PUBCHEM_CONFORMER_ID>
00029B1B00000001

> <PUBCHEM_MMFF94_ENERGY>
115.1965

> <PUBCHEM_FEATURE_SELFOVERLAP>
52.872

> <PUBCHEM_SHAPE_FINGERPRINT>
10675989 125 16388447526241140461
10863032 1 18341613646749887239
10948715 1 18122066399273765279
10967382 1 18267302023725812364
1100329 8 18411702050012546145
11578080 2 16987699355017058458
11680986 33 18265894850858813209
12011746 2 18337106744836115285
12035758 1 18410864247678813915
12156800 1 16968369794476960928
12293681 4 18410579444165862314
12553582 1 18340195315663133820
12788726 201 18124600773934446306
13027679 85 18336267946012220125
13140716 1 18266446801612077328
14223421 5 18122342647111681411
14251751 93 17978507529669162812
14787075 74 18261962834121740197
14790565 3 18123479267131288272
15209289 33 18336829697448343161
16728300 4 17037769044735958864
16945 1 18339628010270028439
19591789 44 18050851017941274771
19930381 70 17330551463118810211
20028762 73 18273493469146479783
20775438 99 17406215283724168647
20905425 154 18051701232461156148
2334 1 17833257997670100844
23419403 2 17466762188988089703
23558518 356 18189614019626165241
23559900 14 18411978032516823618
238 59 16897885932417444063
2748010 2 17977091680831075572
3178227 256 18265628580710357441
335352 9 18339642226691062260
3380486 145 17686345678231821579
350125 39 18265339575895697445
484989 97 18335413621937228511
70251023 43 18056179513483774551
7226269 152 18262786360347489666
81228 2 17750796738626531515
9709674 26 18413109459529865150
9981440 41 17622420050417460504

> <PUBCHEM_SHAPE_MULTIPOLES>
513.37
6.04
4.12
1.17
4.02
0.89
0.02
-0.23
-0.76
-1.23
0.76
-0.35
-0.52
0.48

> <PUBCHEM_SHAPE_SELFOVERLAP>
1169.578

> <PUBCHEM_SHAPE_VOLUME>
262.3

> <PUBCHEM_COORDINATE_TYPE>
2
5
10

$$$$
