209805
  -OEChem-10241303113D

 14 14  0     0  0  0  0  0  0999 V2000
    0.5073    1.7715    0.0010 S   0  0  0  0  0  0  0  0  0  0  0  0
   -2.3143    1.1905   -0.0006 O   0  0  0  0  0  0  0  0  0  0  0  0
   -2.1788   -1.0684    0.0000 O   0  0  0  0  0  0  0  0  0  0  0  0
    2.1334   -0.2380   -0.0005 N   0  0  0  0  0  0  0  0  0  0  0  0
    0.8472   -0.7414    0.0001 C   0  0  0  0  0  0  0  0  0  0  0  0
   -0.1661    0.1943    0.0001 C   0  0  0  0  0  0  0  0  0  0  0  0
    0.6767   -2.2091    0.0003 C   0  0  0  0  0  0  0  0  0  0  0  0
    2.0757    1.0752   -0.0004 C   0  0  0  0  0  0  0  0  0  0  0  0
   -1.5811    0.0254    0.0000 C   0  0  0  0  0  0  0  0  0  0  0  0
    0.1284   -2.5358    0.8896 H   0  0  0  0  0  0  0  0  0  0  0  0
    0.1286   -2.5361   -0.8890 H   0  0  0  0  0  0  0  0  0  0  0  0
    1.6459   -2.7185    0.0006 H   0  0  0  0  0  0  0  0  0  0  0  0
    2.9654    1.6899   -0.0007 H   0  0  0  0  0  0  0  0  0  0  0  0
   -3.2785    1.0090   -0.0008 H   0  0  0  0  0  0  0  0  0  0  0  0
  1  6  1  0  0  0  0
  1  8  1  0  0  0  0
  2  9  1  0  0  0  0
  2 14  1  0  0  0  0
  3  9  2  0  0  0  0
  4  5  1  0  0  0  0
  4  8  2  0  0  0  0
  5  6  2  0  0  0  0
  5  7  1  0  0  0  0
  6  9  1  0  0  0  0
  7 10  1  0  0  0  0
  7 11  1  0  0  0  0
  7 12  1  0  0  0  0
  8 13  1  0  0  0  0
M  END
> <PUBCHEM_COMPOUND_CID>
209805

> <PUBCHEM_CONFORMER_RMSD>
0.4

> <PUBCHEM_CONFORMER_DIVERSEORDER>
1
2

> <PUBCHEM_MMFF94_PARTIAL_CHARGES>
11
1 -0.08
13 0.15
14 0.5
2 -0.65
3 -0.57
4 -0.57
5 0.05
6 -0.05
7 0.18
8 0.23
9 0.81

> <PUBCHEM_EFFECTIVE_ROTOR_COUNT>
1

> <PUBCHEM_PHARMACOPHORE_FEATURES>
5
1 2 acceptor
1 3 acceptor
1 4 acceptor
3 2 3 9 anion
5 1 4 5 6 8 rings

> <PUBCHEM_HEAVY_ATOM_COUNT>
9

> <PUBCHEM_ATOM_DEF_STEREO_COUNT>
0

> <PUBCHEM_ATOM_UDEF_STEREO_COUNT>
0

> <PUBCHEM_BOND_DEF_STEREO_COUNT>
0

> <PUBCHEM_BOND_UDEF_STEREO_COUNT>
0

> <PUBCHEM_ISOTOPIC_ATOM_COUNT>
0

> <PUBCHEM_COMPONENT_COUNT>
1

> <PUBCHEM_CACTVS_TAUTO_COUNT>
1

> <PUBCHEM_CONFORMER_ID>
0003338D00000001

> <PUBCHEM_MMFF94_ENERGY>
10.7837

> <PUBCHEM_FEATURE_SELFOVERLAP>
25.432

> <PUBCHEM_SHAPE_FINGERPRINT>
12897270 3 18338231673721353847
16945 1 18266459797929796644
18185500 45 18340486660168722467
21040471 1 18266740375464031780
23552423 10 18335708186924185054
241688 4 17257653313921234264
2748010 2 18410575106317367540
29004967 10 18335988579558542232
5084963 1 18058454368470089104

> <PUBCHEM_SHAPE_MULTIPOLES>
172.35
2.86
2.05
0.6
0.86
0.54
0
-0.46
0
-0.29
0
-0.04
-0.02
0

> <PUBCHEM_SHAPE_SELFOVERLAP>
344.047

> <PUBCHEM_SHAPE_VOLUME>
104

> <PUBCHEM_COORDINATE_TYPE>
2
5
10

$$$$
