3076917
  -OEChem-10241302583D

 40 43  0     1  0  0  0  0  0999 V2000
    2.4108    0.9281    1.1074 N   0  0  0  0  0  0  0  0  0  0  0  0
    1.3757   -2.5144    0.0876 N   0  0  0  0  0  0  0  0  0  0  0  0
   -0.4008    0.7282    0.7589 N   0  0  0  0  0  0  0  0  0  0  0  0
    2.4523   -0.3345    0.3587 C   0  0  1  0  0  0  0  0  0  0  0  0
    1.2716   -1.2059    0.7831 C   0  0  1  0  0  0  0  0  0  0  0  0
    2.4118   -0.0721   -1.1530 C   0  0  0  0  0  0  0  0  0  0  0  0
   -0.0471   -0.5627    0.4855 C   0  0  0  0  0  0  0  0  0  0  0  0
   -1.1395   -1.2029   -0.0619 C   0  0  0  0  0  0  0  0  0  0  0  0
    3.5393    0.8629   -1.5821 C   0  0  0  0  0  0  0  0  0  0  0  0
   -1.0722   -2.6389   -0.4491 C   0  0  0  0  0  0  0  0  0  0  0  0
    3.5339    2.1313   -0.7361 C   0  0  0  0  0  0  0  0  0  0  0  0
    0.1429   -3.3152    0.2213 C   0  0  0  0  0  0  0  0  0  0  0  0
    3.5300    1.8019    0.7547 C   0  0  0  0  0  0  0  0  0  0  0  0
   -2.1947   -0.2561   -0.1546 C   0  0  0  0  0  0  0  0  0  0  0  0
   -1.7051    0.9466    0.3670 C   0  0  0  0  0  0  0  0  0  0  0  0
   -3.5218   -0.2997   -0.6266 C   0  0  0  0  0  0  0  0  0  0  0  0
   -2.4828    2.1080    0.4384 C   0  0  0  0  0  0  0  0  0  0  0  0
   -4.3087    0.8557   -0.5621 C   0  0  0  0  0  0  0  0  0  0  0  0
   -3.7954    2.0397   -0.0371 C   0  0  0  0  0  0  0  0  0  0  0  0
    3.3866   -0.8576    0.6078 H   0  0  0  0  0  0  0  0  0  0  0  0
    1.3216   -1.3950    1.8646 H   0  0  0  0  0  0  0  0  0  0  0  0
    1.4626    0.3827   -1.4613 H   0  0  0  0  0  0  0  0  0  0  0  0
    2.5113   -1.0069   -1.7168 H   0  0  0  0  0  0  0  0  0  0  0  0
    3.4345    1.1177   -2.6424 H   0  0  0  0  0  0  0  0  0  0  0  0
    4.5026    0.3507   -1.4675 H   0  0  0  0  0  0  0  0  0  0  0  0
    2.4401    0.7330    2.1080 H   0  0  0  0  0  0  0  0  0  0  0  0
    2.1642   -3.0348    0.4713 H   0  0  0  0  0  0  0  0  0  0  0  0
   -1.9903   -3.1608   -0.1581 H   0  0  0  0  0  0  0  0  0  0  0  0
   -0.9778   -2.7085   -1.5396 H   0  0  0  0  0  0  0  0  0  0  0  0
    4.4102    2.7425   -0.9791 H   0  0  0  0  0  0  0  0  0  0  0  0
    2.6475    2.7298   -0.9823 H   0  0  0  0  0  0  0  0  0  0  0  0
   -0.0617   -3.4965    1.2844 H   0  0  0  0  0  0  0  0  0  0  0  0
    0.3029   -4.2945   -0.2435 H   0  0  0  0  0  0  0  0  0  0  0  0
    4.4791    1.3339    1.0431 H   0  0  0  0  0  0  0  0  0  0  0  0
    3.4454    2.7324    1.3266 H   0  0  0  0  0  0  0  0  0  0  0  0
    0.1991    1.4242    1.1800 H   0  0  0  0  0  0  0  0  0  0  0  0
   -3.9363   -1.2160   -1.0374 H   0  0  0  0  0  0  0  0  0  0  0  0
   -2.0850    3.0307    0.8474 H   0  0  0  0  0  0  0  0  0  0  0  0
   -5.3326    0.8270   -0.9254 H   0  0  0  0  0  0  0  0  0  0  0  0
   -4.4247    2.9251    0.0042 H   0  0  0  0  0  0  0  0  0  0  0  0
  1  4  1  0  0  0  0
  1 13  1  0  0  0  0
  1 26  1  0  0  0  0
  2  5  1  0  0  0  0
  2 12  1  0  0  0  0
  2 27  1  0  0  0  0
  3  7  1  0  0  0  0
  3 15  1  0  0  0  0
  3 36  1  0  0  0  0
  4  5  1  0  0  0  0
  4  6  1  0  0  0  0
  4 20  1  0  0  0  0
  5  7  1  0  0  0  0
  5 21  1  0  0  0  0
  6  9  1  0  0  0  0
  6 22  1  0  0  0  0
  6 23  1  0  0  0  0
  7  8  2  0  0  0  0
  8 10  1  0  0  0  0
  8 14  1  0  0  0  0
  9 11  1  0  0  0  0
  9 24  1  0  0  0  0
  9 25  1  0  0  0  0
 10 12  1  0  0  0  0
 10 28  1  0  0  0  0
 10 29  1  0  0  0  0
 11 13  1  0  0  0  0
 11 30  1  0  0  0  0
 11 31  1  0  0  0  0
 12 32  1  0  0  0  0
 12 33  1  0  0  0  0
 13 34  1  0  0  0  0
 13 35  1  0  0  0  0
 14 15  1  0  0  0  0
 14 16  2  0  0  0  0
 15 17  2  0  0  0  0
 16 18  1  0  0  0  0
 16 37  1  0  0  0  0
 17 19  1  0  0  0  0
 17 38  1  0  0  0  0
 18 19  2  0  0  0  0
 18 39  1  0  0  0  0
 19 40  1  0  0  0  0
M  END
> <PUBCHEM_COMPOUND_CID>
3076917

> <PUBCHEM_CONFORMER_RMSD>
0.6

> <PUBCHEM_CONFORMER_DIVERSEORDER>
1
5
10
12
3
4
6
11
7
2
8
9

> <PUBCHEM_MMFF94_PARTIAL_CHARGES>
22
1 -0.9
10 0.18
12 0.27
13 0.27
15 -0.15
16 -0.15
17 -0.15
18 -0.15
19 -0.15
2 -0.9
26 0.36
27 0.36
3 0.03
36 0.27
37 0.15
38 0.15
39 0.15
4 0.27
40 0.15
5 0.45
7 -0.33
8 -0.18

> <PUBCHEM_EFFECTIVE_ROTOR_COUNT>
3

> <PUBCHEM_PHARMACOPHORE_FEATURES>
10
1 1 cation
1 1 donor
1 2 cation
1 2 donor
1 3 cation
1 3 donor
5 3 7 8 14 15 rings
6 1 4 6 9 11 13 rings
6 14 15 16 17 18 19 rings
6 2 5 7 8 10 12 rings

> <PUBCHEM_HEAVY_ATOM_COUNT>
19

> <PUBCHEM_ATOM_DEF_STEREO_COUNT>
0

> <PUBCHEM_ATOM_UDEF_STEREO_COUNT>
2

> <PUBCHEM_BOND_DEF_STEREO_COUNT>
0

> <PUBCHEM_BOND_UDEF_STEREO_COUNT>
0

> <PUBCHEM_ISOTOPIC_ATOM_COUNT>
0

> <PUBCHEM_COMPONENT_COUNT>
1

> <PUBCHEM_CACTVS_TAUTO_COUNT>
1

> <PUBCHEM_CONFORMER_ID>
002EF33500000001

> <PUBCHEM_MMFF94_ENERGY>
23.5471

> <PUBCHEM_FEATURE_SELFOVERLAP>
50.929

> <PUBCHEM_SHAPE_FINGERPRINT>
10498660 4 18411135853079543309
10967382 1 18341322298022976475
11640471 11 17677894715743124188
12173636 292 18410852204748725671
12363563 72 10087642597859835908
12633257 1 13551753014919921180
12788726 201 17537162828014990682
13140716 1 18266176141347064003
13583140 156 16950553437115317105
13764800 53 18188780572621678194
13965767 371 18041542681750981932
14123255 52 18408887355873876812
14142880 1 17751637886517352260
14415576 193 18336543803050414173
14739800 52 17688859157914108976
14787075 74 18042688489147701027
14790565 3 18340780337923566009
15342168 16 18187367610492270085
15475509 35 12822713012950779829
16945 1 18340485668195021923
17134986 127 18408609136714335740
1741750 31 18336827588645690098
17980427 23 17910079479180611562
1798214 55 18408886247762011772
1813 80 17388241352971522994
18186145 218 18131075913289259545
19591789 44 17978230788178993963
20361792 2 13183030617913126824
20510252 161 18196941178124965731
20645476 183 18261395593311529782
20671657 1 18338796689401427342
20871998 22 9151170952465673262
21524375 3 18260829280604359626
21731516 1 10807939258138119580
2255824 54 18119811309331060795
22854114 111 18338232644326070377
23227448 37 18123751125649453412
23366157 5 18044935675781498731
23419403 2 14035698565212442867
23526113 38 17489307550630161898
23557571 272 17982452895375425896
23558518 356 18189046650652985370
23559900 14 18198051487205825067
2637199 183 18339939120631773412
3060560 45 18338517409379741662
394222 165 18187356606311200475
4028521 119 18342180011234113436
4340502 62 17022897961339652659
458136 41 18267882600662925075
474 4 18113621153355546541
5262128 65 17273715168869279332
526903 126 18269553999722912097
57096353 35 18271511032232068437
633830 44 18131071489831796757
7364860 26 18125153840556592482
7808743 9 18191590972104430516
81228 2 17907870852425691202
84936 182 18341612551549161608
9981440 41 18336537317597238946

> <PUBCHEM_SHAPE_MULTIPOLES>
376.07
7.09
3.12
1.07
1.03
1.95
-0.18
-5.84
-1.68
-0.07
0.13
-0.82
-0.24
-0.41

> <PUBCHEM_SHAPE_SELFOVERLAP>
821.939

> <PUBCHEM_SHAPE_VOLUME>
199

> <PUBCHEM_COORDINATE_TYPE>
2
5
10

$$$$
