89178
  -OEChem-10241303073D

 22 22  0     0  0  0  0  0  0999 V2000
    1.8927    0.3214   -0.2616 O   0  0  0  0  0  0  0  0  0  0  0  0
    4.6884    0.2109   -0.3956 O   0  0  0  0  0  0  0  0  0  0  0  0
   -4.3457   -0.8927    0.0538 O   0  0  0  0  0  0  0  0  0  0  0  0
    0.5359    0.2804   -0.1642 C   0  0  0  0  0  0  0  0  0  0  0  0
    2.6110   -0.8280    0.1841 C   0  0  0  0  0  0  0  0  0  0  0  0
   -0.1849    1.4578    0.0357 C   0  0  0  0  0  0  0  0  0  0  0  0
   -0.1341   -0.9389   -0.2655 C   0  0  0  0  0  0  0  0  0  0  0  0
   -2.2456    0.1969    0.0330 C   0  0  0  0  0  0  0  0  0  0  0  0
    3.9787   -0.3964    0.6771 C   0  0  0  0  0  0  0  0  0  0  0  0
   -1.5757    1.4160    0.1344 C   0  0  0  0  0  0  0  0  0  0  0  0
   -1.5250   -0.9806   -0.1669 C   0  0  0  0  0  0  0  0  0  0  0  0
   -3.6957    0.1532    0.1355 C   0  0  0  0  0  0  0  0  0  0  0  0
    2.1025   -1.3293    1.0170 H   0  0  0  0  0  0  0  0  0  0  0  0
    2.7162   -1.5189   -0.6601 H   0  0  0  0  0  0  0  0  0  0  0  0
    0.3318    2.4103    0.1152 H   0  0  0  0  0  0  0  0  0  0  0  0
    0.3865   -1.8742   -0.4485 H   0  0  0  0  0  0  0  0  0  0  0  0
    4.5579   -1.2469    1.0483 H   0  0  0  0  0  0  0  0  0  0  0  0
    3.8885    0.3490    1.4730 H   0  0  0  0  0  0  0  0  0  0  0  0
   -2.1231    2.3421    0.2901 H   0  0  0  0  0  0  0  0  0  0  0  0
   -2.0269   -1.9406   -0.2548 H   0  0  0  0  0  0  0  0  0  0  0  0
   -4.2101    1.1164    0.2936 H   0  0  0  0  0  0  0  0  0  0  0  0
    4.7883   -0.4563   -1.0960 H   0  0  0  0  0  0  0  0  0  0  0  0
  1  4  1  0  0  0  0
  1  5  1  0  0  0  0
  2  9  1  0  0  0  0
  2 22  1  0  0  0  0
  3 12  2  0  0  0  0
  4  6  2  0  0  0  0
  4  7  1  0  0  0  0
  5  9  1  0  0  0  0
  5 13  1  0  0  0  0
  5 14  1  0  0  0  0
  6 10  1  0  0  0  0
  6 15  1  0  0  0  0
  7 11  2  0  0  0  0
  7 16  1  0  0  0  0
  8 10  2  0  0  0  0
  8 11  1  0  0  0  0
  8 12  1  0  0  0  0
  9 17  1  0  0  0  0
  9 18  1  0  0  0  0
 10 19  1  0  0  0  0
 11 20  1  0  0  0  0
 12 21  1  0  0  0  0
M  END
> <PUBCHEM_COMPOUND_CID>
89178

> <PUBCHEM_CONFORMER_RMSD>
0.6

> <PUBCHEM_CONFORMER_DIVERSEORDER>
1
14
15
5
6
4
10
9
13
2
7
11
8
12
3

> <PUBCHEM_MMFF94_PARTIAL_CHARGES>
18
1 -0.36
10 -0.15
11 -0.15
12 0.42
15 0.15
16 0.15
19 0.15
2 -0.68
20 0.15
21 0.06
22 0.4
3 -0.57
4 0.08
5 0.28
6 -0.15
7 -0.15
8 0.09
9 0.28

> <PUBCHEM_EFFECTIVE_ROTOR_COUNT>
4

> <PUBCHEM_PHARMACOPHORE_FEATURES>
5
1 1 acceptor
1 2 acceptor
1 2 donor
1 3 acceptor
6 4 6 7 8 10 11 rings

> <PUBCHEM_HEAVY_ATOM_COUNT>
12

> <PUBCHEM_ATOM_DEF_STEREO_COUNT>
0

> <PUBCHEM_ATOM_UDEF_STEREO_COUNT>
0

> <PUBCHEM_BOND_DEF_STEREO_COUNT>
0

> <PUBCHEM_BOND_UDEF_STEREO_COUNT>
0

> <PUBCHEM_ISOTOPIC_ATOM_COUNT>
0

> <PUBCHEM_COMPONENT_COUNT>
1

> <PUBCHEM_CACTVS_TAUTO_COUNT>
1

> <PUBCHEM_CONFORMER_ID>
00015C5A00000001

> <PUBCHEM_MMFF94_ENERGY>
33.891

> <PUBCHEM_FEATURE_SELFOVERLAP>
25.376

> <PUBCHEM_SHAPE_FINGERPRINT>
10130415 120 18408041831474237121
11062470 55 17530684299160489774
11401426 45 18341325631054819549
12032990 46 18411986849272409495
12932764 1 16916487174041831646
13690532 89 18334011692043246139
14252887 29 18202293489017852182
14325111 11 18339642218343583880
14943859 89 9295283945617977732
15219456 202 17702951305544356110
16945 1 18343311357438789269
200 152 15502090839208583480
20510252 161 18130508522260572128
20645477 70 14779535752604316410
20871998 184 18201717319149397127
21119208 17 10447927278394443330
22485316 2 15430034366056964730
23402539 116 18201147802597136143
23402655 69 18125423234882576485
23463225 33 18408041788403153838
23532345 42 18339631326085163928
43471831 8 18263641771045140930

> <PUBCHEM_SHAPE_MULTIPOLES>
229.35
7.62
1.27
0.67
4.09
0.24
0.03
-1.35
0.59
-0.5
0
0.19
-0.01
-0.18

> <PUBCHEM_SHAPE_SELFOVERLAP>
469.808

> <PUBCHEM_SHAPE_VOLUME>
132.8

> <PUBCHEM_COORDINATE_TYPE>
2
5
10

$$$$
