5281607
  -OEChem-10241302553D

 29 31  0     0  0  0  0  0  0999 V2000
    0.2347   -0.8220    0.0512 O   0  0  0  0  0  0  0  0  0  0  0  0
   -3.7341    1.9557   -0.1152 O   0  0  0  0  0  0  0  0  0  0  0  0
   -1.3041    2.9429   -0.1858 O   0  0  0  0  0  0  0  0  0  0  0  0
   -4.0926   -2.7696    0.1975 O   0  0  0  0  0  0  0  0  0  0  0  0
   -1.7171    0.6210   -0.0362 C   0  0  0  0  0  0  0  0  0  0  0  0
   -1.1247   -0.6381    0.0441 C   0  0  0  0  0  0  0  0  0  0  0  0
    1.0528    0.2944   -0.0328 C   0  0  0  0  0  0  0  0  0  0  0  0
   -0.8525    1.8082   -0.1163 C   0  0  0  0  0  0  0  0  0  0  0  0
    2.4962   -0.0164   -0.0111 C   0  0  0  0  0  0  0  0  0  0  0  0
   -3.1080    0.7486   -0.0388 C   0  0  0  0  0  0  0  0  0  0  0  0
    0.6029    1.5571   -0.1076 C   0  0  0  0  0  0  0  0  0  0  0  0
   -1.9221   -1.7800    0.1229 C   0  0  0  0  0  0  0  0  0  0  0  0
   -3.3118   -1.6570    0.1204 C   0  0  0  0  0  0  0  0  0  0  0  0
   -3.9032   -0.3954    0.0397 C   0  0  0  0  0  0  0  0  0  0  0  0
    3.4015    0.8918    0.5433 C   0  0  0  0  0  0  0  0  0  0  0  0
    2.9631   -1.2202   -0.5449 C   0  0  0  0  0  0  0  0  0  0  0  0
    4.7650    0.5981    0.5637 C   0  0  0  0  0  0  0  0  0  0  0  0
    4.3265   -1.5141   -0.5242 C   0  0  0  0  0  0  0  0  0  0  0  0
    5.2275   -0.6049    0.0301 C   0  0  0  0  0  0  0  0  0  0  0  0
    1.2442    2.4272   -0.1857 H   0  0  0  0  0  0  0  0  0  0  0  0
   -1.4639   -2.7639    0.1860 H   0  0  0  0  0  0  0  0  0  0  0  0
   -4.9864   -0.2982    0.0379 H   0  0  0  0  0  0  0  0  0  0  0  0
    3.0795    1.8293    0.9889 H   0  0  0  0  0  0  0  0  0  0  0  0
    2.2844   -1.9432   -0.9907 H   0  0  0  0  0  0  0  0  0  0  0  0
    5.4665    1.3035    0.9997 H   0  0  0  0  0  0  0  0  0  0  0  0
    4.6871   -2.4498   -0.9413 H   0  0  0  0  0  0  0  0  0  0  0  0
    6.2890   -0.8339    0.0469 H   0  0  0  0  0  0  0  0  0  0  0  0
   -3.0844    2.6733   -0.1674 H   0  0  0  0  0  0  0  0  0  0  0  0
   -5.0272   -2.5008    0.1835 H   0  0  0  0  0  0  0  0  0  0  0  0
  1  6  1  0  0  0  0
  1  7  1  0  0  0  0
  2 10  1  0  0  0  0
  2 28  1  0  0  0  0
  3  8  2  0  0  0  0
  4 13  1  0  0  0  0
  4 29  1  0  0  0  0
  5  6  1  0  0  0  0
  5  8  1  0  0  0  0
  5 10  2  0  0  0  0
  6 12  2  0  0  0  0
  7  9  1  0  0  0  0
  7 11  2  0  0  0  0
  8 11  1  0  0  0  0
  9 15  2  0  0  0  0
  9 16  1  0  0  0  0
 10 14  1  0  0  0  0
 11 20  1  0  0  0  0
 12 13  1  0  0  0  0
 12 21  1  0  0  0  0
 13 14  2  0  0  0  0
 14 22  1  0  0  0  0
 15 17  1  0  0  0  0
 15 23  1  0  0  0  0
 16 18  2  0  0  0  0
 16 24  1  0  0  0  0
 17 19  2  0  0  0  0
 17 25  1  0  0  0  0
 18 19  1  0  0  0  0
 18 26  1  0  0  0  0
 19 27  1  0  0  0  0
M  END
> <PUBCHEM_COMPOUND_CID>
5281607

> <PUBCHEM_CONFORMER_RMSD>
0.6

> <PUBCHEM_CONFORMER_DIVERSEORDER>
1

> <PUBCHEM_MMFF94_PARTIAL_CHARGES>
29
1 -0.16
10 0.08
11 -0.14
12 -0.15
13 0.08
14 -0.15
15 -0.15
16 -0.15
17 -0.15
18 -0.15
19 -0.15
2 -0.53
20 0.15
21 0.15
22 0.15
23 0.15
24 0.15
25 0.15
26 0.15
27 0.15
28 0.45
29 0.45
3 -0.57
4 -0.53
5 0.09
6 0.08
7 0.05
8 0.47
9 0.03

> <PUBCHEM_EFFECTIVE_ROTOR_COUNT>
1

> <PUBCHEM_PHARMACOPHORE_FEATURES>
7
1 1 acceptor
1 2 donor
1 3 acceptor
1 4 donor
6 1 5 6 7 8 11 rings
6 5 6 10 12 13 14 rings
6 9 15 16 17 18 19 rings

> <PUBCHEM_HEAVY_ATOM_COUNT>
19

> <PUBCHEM_ATOM_DEF_STEREO_COUNT>
0

> <PUBCHEM_ATOM_UDEF_STEREO_COUNT>
0

> <PUBCHEM_BOND_DEF_STEREO_COUNT>
0

> <PUBCHEM_BOND_UDEF_STEREO_COUNT>
0

> <PUBCHEM_ISOTOPIC_ATOM_COUNT>
0

> <PUBCHEM_COMPONENT_COUNT>
1

> <PUBCHEM_CACTVS_TAUTO_COUNT>
12

> <PUBCHEM_CONFORMER_ID>
0050974700000001

> <PUBCHEM_MMFF94_ENERGY>
58.6802

> <PUBCHEM_FEATURE_SELFOVERLAP>
35.55

> <PUBCHEM_SHAPE_FINGERPRINT>
10319926 262 18268127809494919170
10411042 1 18265615579738713891
10493431 412 18197507221146397953
10608611 8 18342171134064233104
10616163 171 18411420583546564262
11132069 177 18409449163297457936
11552529 35 17632292436352682015
12032990 46 18410295851770216003
12236239 1 17458347408211182968
12403259 226 18412821387472877168
13140716 1 18411706521194677761
13214271 11 18343016692438145285
13288520 33 18410857667820642214
13296908 3 18411982472727089118
13675066 3 18273492390518142728
14790565 3 17835527016235198305
14866123 147 16905542407924379514
15042514 8 18408611353328975545
15196674 1 18411136944106257192
15219456 202 18273213084594875086
15352361 1 18338516451385899415
15375358 24 18271805692352254134
17492 89 18409448060024340482
17804303 29 18412829079284446544
17834074 16 18342458115019991270
1813 80 17603588547200830588
18186145 218 15864357977667883748
19141452 34 18272937150226625303
200 152 17418085499329608732
20281475 54 18410863191143420508
20510252 161 18270961232888654944
21065198 57 18341612581977734456
21065199 12 18343580759357389514
21065201 7 18335979788261725250
21267235 1 18409175436536850755
221490 88 18264213680320700032
2297311 6 18341061765380641204
23366157 5 17823981353853568324
23402539 116 18410004433933626846
23557571 272 18341902895859977406
23559900 14 18341328882482245094
23845131 108 17547870555410292105
26918003 58 18201434745125223712
2748010 2 18338507659920037029
2871803 45 18408600357965063606
335352 9 18338517426438382605
34934 24 18335413522403504251
4214541 1 18411700959095601360
474 4 16878802641914734316
5104073 3 18342454829459681514
573450 72 18187353303882126634
67856867 119 18187930638177329652
69090 78 18272364239964106078
7364860 26 17979074113022900857
77779 3 18411982460047818098
8809292 202 18408608049860866890
9709674 26 18271529672084392270

> <PUBCHEM_SHAPE_MULTIPOLES>
367.53
9.79
2.47
0.67
6.66
0.28
0
-3.3
0.48
-2.43
-0.1
0.26
-0.02
0.74

> <PUBCHEM_SHAPE_SELFOVERLAP>
822.826

> <PUBCHEM_SHAPE_VOLUME>
193.3

> <PUBCHEM_COORDINATE_TYPE>
2
5
10

$$$$
