70223
  -OEChem-10241302543D

 15 14  0     0  0  0  0  0  0999 V2000
    1.4683   -0.1106   -0.0091 S   0  0  0  0  0  0  0  0  0  0  0  0
   -0.0288    0.5449   -0.0295 O   0  0  0  0  0  0  0  0  0  0  0  0
    2.4521    1.1856    0.1069 O   0  0  0  0  0  0  0  0  0  0  0  0
    1.5969   -0.8683    1.2216 O   0  0  0  0  0  0  0  0  0  0  0  0
    1.7203   -0.7489   -1.2877 O   0  0  0  0  0  0  0  0  0  0  0  0
   -3.6178   -0.2643    0.0046 N   0  0  0  0  0  0  0  0  0  0  0  0
   -1.1703   -0.3013    0.0118 C   0  0  0  0  0  0  0  0  0  0  0  0
   -2.4207    0.5630   -0.0187 C   0  0  0  0  0  0  0  0  0  0  0  0
   -1.1440   -0.9762   -0.8514 H   0  0  0  0  0  0  0  0  0  0  0  0
   -1.1413   -0.9022    0.9278 H   0  0  0  0  0  0  0  0  0  0  0  0
   -2.4231    1.2438    0.8399 H   0  0  0  0  0  0  0  0  0  0  0  0
   -2.4176    1.1939   -0.9149 H   0  0  0  0  0  0  0  0  0  0  0  0
   -3.6316   -0.8729   -0.8127 H   0  0  0  0  0  0  0  0  0  0  0  0
   -4.4421    0.3306   -0.0683 H   0  0  0  0  0  0  0  0  0  0  0  0
    2.2535    1.9225   -0.5173 H   0  0  0  0  0  0  0  0  0  0  0  0
  1  2  1  0  0  0  0
  1  3  1  0  0  0  0
  1  4  2  0  0  0  0
  1  5  2  0  0  0  0
  2  7  1  0  0  0  0
  3 15  1  0  0  0  0
  6  8  1  0  0  0  0
  6 13  1  0  0  0  0
  6 14  1  0  0  0  0
  7  8  1  0  0  0  0
  7  9  1  0  0  0  0
  7 10  1  0  0  0  0
  8 11  1  0  0  0  0
  8 12  1  0  0  0  0
M  END
> <PUBCHEM_COMPOUND_CID>
70223

> <PUBCHEM_CONFORMER_RMSD>
0.6

> <PUBCHEM_CONFORMER_DIVERSEORDER>
1
6
4
3
5
2

> <PUBCHEM_MMFF94_PARTIAL_CHARGES>
11
1 1.67
13 0.36
14 0.36
15 0.5
2 -0.46
3 -0.68
4 -0.65
5 -0.65
6 -0.99
7 0.28
8 0.27

> <PUBCHEM_EFFECTIVE_ROTOR_COUNT>
3

> <PUBCHEM_PHARMACOPHORE_FEATURES>
6
1 3 acceptor
1 4 acceptor
1 5 acceptor
1 6 cation
1 6 donor
4 1 3 4 5 anion

> <PUBCHEM_HEAVY_ATOM_COUNT>
8

> <PUBCHEM_ATOM_DEF_STEREO_COUNT>
0

> <PUBCHEM_ATOM_UDEF_STEREO_COUNT>
0

> <PUBCHEM_BOND_DEF_STEREO_COUNT>
0

> <PUBCHEM_BOND_UDEF_STEREO_COUNT>
0

> <PUBCHEM_ISOTOPIC_ATOM_COUNT>
0

> <PUBCHEM_COMPONENT_COUNT>
1

> <PUBCHEM_CACTVS_TAUTO_COUNT>
1

> <PUBCHEM_CONFORMER_ID>
0001124F00000001

> <PUBCHEM_MMFF94_ENERGY>
-1.9203

> <PUBCHEM_FEATURE_SELFOVERLAP>
30.505

> <PUBCHEM_SHAPE_FINGERPRINT>
12932764 1 18114466673834544445
14390081 3 18260829302158408165
170605 34 18339361975943580296
21040471 1 17385734624640376762
23552449 11 18336539434942008728
29004967 10 17489585649551580891
3248919 1 17988918947196274953
5460574 1 9367348137100147105

> <PUBCHEM_SHAPE_MULTIPOLES>
140.03
4.67
0.95
0.9
3.71
0.11
0.04
0.21
0.01
-0.45
-0.04
-0.56
-0.26
0.03

> <PUBCHEM_SHAPE_SELFOVERLAP>
243.358

> <PUBCHEM_SHAPE_VOLUME>
92.9

> <PUBCHEM_COORDINATE_TYPE>
2
5
10

$$$$
