64939
  -OEChem-10241302483D

 28 29  0     0  0  0  0  0  0999 V2000
   -0.3806    1.8664   -0.1233 S   0  0  0  0  0  0  0  0  0  0  0  0
    2.9675   -0.6393    2.1239 S   0  0  0  0  0  0  0  0  0  0  0  0
   -0.7081    2.8375   -1.1599 O   0  0  0  0  0  0  0  0  0  0  0  0
   -0.1472    2.3244    1.2405 O   0  0  0  0  0  0  0  0  0  0  0  0
    3.3012   -0.7138   -1.5405 O   0  0  0  0  0  0  0  0  0  0  0  0
    0.9532    0.9321   -0.6358 N   0  0  0  0  0  0  0  0  0  0  0  0
    1.7016    0.2962    1.5429 N   0  0  0  0  0  0  0  0  0  0  0  0
   -4.6882   -2.2303    0.0119 N   0  0  0  0  0  0  0  0  0  0  0  0
    3.6923   -1.0950    0.6808 N   0  0  0  0  0  0  0  0  0  0  0  0
   -1.6462    0.6642   -0.0833 C   0  0  0  0  0  0  0  0  0  0  0  0
   -1.8816   -0.0618    1.0843 C   0  0  0  0  0  0  0  0  0  0  0  0
   -2.4210    0.4290   -1.2189 C   0  0  0  0  0  0  0  0  0  0  0  0
    1.8488    0.2498    0.2220 C   0  0  0  0  0  0  0  0  0  0  0  0
   -3.6668   -1.2582   -0.0195 C   0  0  0  0  0  0  0  0  0  0  0  0
   -2.8918   -1.0229    1.1162 C   0  0  0  0  0  0  0  0  0  0  0  0
   -3.4313   -0.5323   -1.1870 C   0  0  0  0  0  0  0  0  0  0  0  0
    2.9444   -0.5155   -0.2610 C   0  0  0  0  0  0  0  0  0  0  0  0
    4.4539   -1.5305   -1.7931 C   0  0  0  0  0  0  0  0  0  0  0  0
    1.1832    0.9297   -1.6378 H   0  0  0  0  0  0  0  0  0  0  0  0
   -1.2900    0.1015    1.9804 H   0  0  0  0  0  0  0  0  0  0  0  0
   -2.2506    0.9776   -2.1409 H   0  0  0  0  0  0  0  0  0  0  0  0
   -3.0650   -1.5828    2.0317 H   0  0  0  0  0  0  0  0  0  0  0  0
   -4.0273   -0.7076   -2.0790 H   0  0  0  0  0  0  0  0  0  0  0  0
   -4.8601   -2.7567    0.8581 H   0  0  0  0  0  0  0  0  0  0  0  0
   -5.2507   -2.4005   -0.8112 H   0  0  0  0  0  0  0  0  0  0  0  0
    4.5924   -1.5809   -2.8771 H   0  0  0  0  0  0  0  0  0  0  0  0
    4.2992   -2.5497   -1.4234 H   0  0  0  0  0  0  0  0  0  0  0  0
    5.3531   -1.0827   -1.3570 H   0  0  0  0  0  0  0  0  0  0  0  0
  1  3  2  0  0  0  0
  1  4  2  0  0  0  0
  1  6  1  0  0  0  0
  1 10  1  0  0  0  0
  2  7  1  0  0  0  0
  2  9  1  0  0  0  0
  5 17  1  0  0  0  0
  5 18  1  0  0  0  0
  6 13  1  0  0  0  0
  6 19  1  0  0  0  0
  7 13  2  0  0  0  0
  8 14  1  0  0  0  0
  8 24  1  0  0  0  0
  8 25  1  0  0  0  0
  9 17  2  0  0  0  0
 10 11  2  0  0  0  0
 10 12  1  0  0  0  0
 11 15  1  0  0  0  0
 11 20  1  0  0  0  0
 12 16  2  0  0  0  0
 12 21  1  0  0  0  0
 13 17  1  0  0  0  0
 14 15  2  0  0  0  0
 14 16  1  0  0  0  0
 15 22  1  0  0  0  0
 16 23  1  0  0  0  0
 18 26  1  0  0  0  0
 18 27  1  0  0  0  0
 18 28  1  0  0  0  0
M  END
> <PUBCHEM_COMPOUND_CID>
64939

> <PUBCHEM_CONFORMER_RMSD>
0.6

> <PUBCHEM_CONFORMER_DIVERSEORDER>
1
14
17
12
15
6
19
16
5
18
13
10
11
20
9
4
3
2
7
8

> <PUBCHEM_MMFF94_PARTIAL_CHARGES>
25
1 1.45
10 -0.01
11 -0.15
12 -0.15
13 0.43
14 0.1
15 -0.15
16 -0.15
17 0.35
18 0.28
19 0.42
2 0.44
20 0.15
21 0.15
22 0.15
23 0.15
24 0.4
25 0.4
3 -0.65
4 -0.65
5 -0.34
6 -0.7
7 -0.51
8 -0.9
9 -0.51

> <PUBCHEM_EFFECTIVE_ROTOR_COUNT>
4

> <PUBCHEM_PHARMACOPHORE_FEATURES>
8
1 3 acceptor
1 4 acceptor
1 6 donor
1 7 acceptor
1 8 cation
1 8 donor
5 2 7 9 13 17 rings
6 10 11 12 14 15 16 rings

> <PUBCHEM_HEAVY_ATOM_COUNT>
18

> <PUBCHEM_ATOM_DEF_STEREO_COUNT>
0

> <PUBCHEM_ATOM_UDEF_STEREO_COUNT>
0

> <PUBCHEM_BOND_DEF_STEREO_COUNT>
0

> <PUBCHEM_BOND_UDEF_STEREO_COUNT>
0

> <PUBCHEM_ISOTOPIC_ATOM_COUNT>
0

> <PUBCHEM_COMPONENT_COUNT>
1

> <PUBCHEM_CACTVS_TAUTO_COUNT>
2

> <PUBCHEM_CONFORMER_ID>
0000FDAB00000001

> <PUBCHEM_MMFF94_ENERGY>
37.791

> <PUBCHEM_FEATURE_SELFOVERLAP>
40.618

> <PUBCHEM_SHAPE_FINGERPRINT>
10465860 71 18186523215299529869
10618630 7 18413388730644708936
11127187 94 18040429984636378151
11543360 7 15502375646985249619
12202030 40 17988076661170366996
12251169 10 15195567913627452851
12363563 72 18336537287516473931
12553582 1 18186811265786735955
12633257 1 14908188555323409287
12707595 3 18336541707011343719
12788726 201 17969504797186269117
12892183 10 16056874771115137395
13103583 49 15769230357494387886
13296908 3 18336537291837905913
14251764 30 16342884069944784406
14252887 29 18131064982745008978
15342816 4 18188201091423510938
15775835 57 9151177536645081505
15842332 3 17315074351358043144
16752209 62 18187918413818943099
1798214 55 9367352543515345551
1813 80 18412269453725344261
193927 3 18341619247672331159
19765921 60 8286211509135460533
20361792 2 18410290341517150869
20645477 70 18118682369130360231
20671657 53 18186515527186997493
20871999 31 17603308158961602127
23382010 3 15430035491291131225
23557571 272 18270104705263052048
23559900 14 18043784560348294096
25 1 11531033019852147785
27216 239 9871452215254760607
3082319 5 16153703215312405635
31174 14 17203315733002959256
3286 77 17060341816290010246
4028521 119 12540694825223047551
59027123 10 15864345779876575102
603831 33 17603873252240802172
6049 1 17631445679703460952
6786 2 16975078834278959545
7097593 13 14764342726263628526
7615 1 17168702995502677048
81228 2 18196928881665804481
90316 7 15339124563240600171

> <PUBCHEM_SHAPE_MULTIPOLES>
340.6
8.22
2.18
1.81
1.09
1.17
0.16
-6.87
-1.99
-1.2
-0.24
1.7
-0.32
0.73

> <PUBCHEM_SHAPE_SELFOVERLAP>
695.198

> <PUBCHEM_SHAPE_VOLUME>
198.5

> <PUBCHEM_COORDINATE_TYPE>
2
5
10

$$$$
