98662
  -OEChem-10241303113D

 18 18  0     0  0  0  0  0  0999 V2000
   -1.8054    2.6331    0.0000 Br  0  0  0  0  0  0  0  0  0  0  0  0
   -2.6061   -0.3831   -0.0001 O   0  0  0  0  0  0  0  0  0  0  0  0
    3.7475   -0.6478    0.0000 O   0  0  0  0  0  0  0  0  0  0  0  0
   -1.2566   -0.1905    0.0000 C   0  0  0  0  0  0  0  0  0  0  0  0
    1.5142    0.1334    0.0000 C   0  0  0  0  0  0  0  0  0  0  0  0
   -0.7042    1.0903    0.0001 C   0  0  0  0  0  0  0  0  0  0  0  0
   -0.4237   -1.3094    0.0001 C   0  0  0  0  0  0  0  0  0  0  0  0
    0.6811    1.2523    0.0001 C   0  0  0  0  0  0  0  0  0  0  0  0
    0.9617   -1.1474    0.0000 C   0  0  0  0  0  0  0  0  0  0  0  0
    2.9589    0.3014   -0.0002 C   0  0  0  0  0  0  0  0  0  0  0  0
   -3.0674   -1.7322   -0.0001 C   0  0  0  0  0  0  0  0  0  0  0  0
   -0.7752   -2.3352    0.0002 H   0  0  0  0  0  0  0  0  0  0  0  0
    1.1146    2.2501    0.0001 H   0  0  0  0  0  0  0  0  0  0  0  0
    1.5925   -2.0327    0.0000 H   0  0  0  0  0  0  0  0  0  0  0  0
    3.3371    1.3378   -0.0005 H   0  0  0  0  0  0  0  0  0  0  0  0
   -2.7701   -2.2625    0.9112 H   0  0  0  0  0  0  0  0  0  0  0  0
   -2.7699   -2.2626   -0.9112 H   0  0  0  0  0  0  0  0  0  0  0  0
   -4.1619   -1.6965   -0.0002 H   0  0  0  0  0  0  0  0  0  0  0  0
  1  6  1  0  0  0  0
  2  4  1  0  0  0  0
  2 11  1  0  0  0  0
  3 10  2  0  0  0  0
  4  6  2  0  0  0  0
  4  7  1  0  0  0  0
  5  8  2  0  0  0  0
  5  9  1  0  0  0  0
  5 10  1  0  0  0  0
  6  8  1  0  0  0  0
  7  9  2  0  0  0  0
  7 12  1  0  0  0  0
  8 13  1  0  0  0  0
  9 14  1  0  0  0  0
 10 15  1  0  0  0  0
 11 16  1  0  0  0  0
 11 17  1  0  0  0  0
 11 18  1  0  0  0  0
M  END
> <PUBCHEM_COMPOUND_CID>
98662

> <PUBCHEM_CONFORMER_RMSD>
0.4

> <PUBCHEM_CONFORMER_DIVERSEORDER>
5
2
3
6
1
4

> <PUBCHEM_MMFF94_PARTIAL_CHARGES>
15
1 -0.11
10 0.42
11 0.28
12 0.15
13 0.15
14 0.15
15 0.06
2 -0.36
3 -0.57
4 0.08
5 0.09
6 0.11
7 -0.15
8 -0.15
9 -0.15

> <PUBCHEM_EFFECTIVE_ROTOR_COUNT>
2

> <PUBCHEM_PHARMACOPHORE_FEATURES>
4
1 1 hydrophobe
1 2 acceptor
1 3 acceptor
6 4 5 6 7 8 9 rings

> <PUBCHEM_HEAVY_ATOM_COUNT>
11

> <PUBCHEM_ATOM_DEF_STEREO_COUNT>
0

> <PUBCHEM_ATOM_UDEF_STEREO_COUNT>
0

> <PUBCHEM_BOND_DEF_STEREO_COUNT>
0

> <PUBCHEM_BOND_UDEF_STEREO_COUNT>
0

> <PUBCHEM_ISOTOPIC_ATOM_COUNT>
0

> <PUBCHEM_COMPONENT_COUNT>
1

> <PUBCHEM_CACTVS_TAUTO_COUNT>
1

> <PUBCHEM_CONFORMER_ID>
0001816600000005

> <PUBCHEM_MMFF94_ENERGY>
35.3605

> <PUBCHEM_FEATURE_SELFOVERLAP>
20.297

> <PUBCHEM_SHAPE_FINGERPRINT>
1 1 17183905770796757813
11206711 2 18410011022371449469
12032990 46 18337959007501488779
12138202 97 18117268160579351349
12932764 1 17417801851526681718
13380535 21 18124888858232868084
13380535 76 18124308303287699813
14325111 11 18410573942755789536
16945 1 18410575097558569286
193761 8 18050568443595692423
20510252 161 18343300370849389808
20871998 184 18201720651980734791
21040471 1 18050568439205773089
21501502 16 18192989318523089706
23402539 116 18341884225320864591
23402655 69 18196353842181071189
23552423 10 18188777132716935582
23559900 14 18055915399729783206
241688 4 18267300013897350505
2748010 2 18196378008990951759
5084963 1 18272934942249048656
6333449 129 18340484443997590541
68250623 7 18191303767182040938

> <PUBCHEM_SHAPE_MULTIPOLES>
220.58
4.64
2.31
0.61
2.54
1.05
0
-1.16
0
-2.2
0
-0.04
0.04
0

> <PUBCHEM_SHAPE_SELFOVERLAP>
444.171

> <PUBCHEM_SHAPE_VOLUME>
133.7

> <PUBCHEM_COORDINATE_TYPE>
2
5
10

$$$$
