74325
  -OEChem-10241302493D

 23 23  0     0  0  0  0  0  0999 V2000
   -2.1895    1.3266   -0.0086 O   0  0  0  0  0  0  0  0  0  0  0  0
    4.2720    0.5162    0.0036 O   0  0  0  0  0  0  0  0  0  0  0  0
   -1.1224   -0.7711   -0.0042 N   0  0  0  0  0  0  0  0  0  0  0  0
    0.2347   -0.4472   -0.0017 C   0  0  0  0  0  0  0  0  0  0  0  0
   -3.5350   -0.6704   -0.0093 C   0  0  0  0  0  0  0  0  0  0  0  0
   -2.2234    0.1005   -0.0072 C   0  0  0  0  0  0  0  0  0  0  0  0
    1.1934   -1.4603    0.0007 C   0  0  0  0  0  0  0  0  0  0  0  0
    0.6327    0.8897   -0.0018 C   0  0  0  0  0  0  0  0  0  0  0  0
   -4.7504    0.2387    0.0220 C   0  0  0  0  0  0  0  0  0  0  0  0
    2.5502   -1.1365    0.0031 C   0  0  0  0  0  0  0  0  0  0  0  0
    1.9895    1.2134    0.0004 C   0  0  0  0  0  0  0  0  0  0  0  0
    2.9482    0.2003    0.0029 C   0  0  0  0  0  0  0  0  0  0  0  0
   -3.5668   -1.2956   -0.9089 H   0  0  0  0  0  0  0  0  0  0  0  0
   -3.5502   -1.3319    0.8645 H   0  0  0  0  0  0  0  0  0  0  0  0
   -1.3299   -1.7677   -0.0043 H   0  0  0  0  0  0  0  0  0  0  0  0
    0.8976   -2.5064    0.0008 H   0  0  0  0  0  0  0  0  0  0  0  0
   -0.0487    1.7288   -0.0036 H   0  0  0  0  0  0  0  0  0  0  0  0
   -4.7483    0.8671    0.9187 H   0  0  0  0  0  0  0  0  0  0  0  0
   -5.6701   -0.3543    0.0220 H   0  0  0  0  0  0  0  0  0  0  0  0
   -4.7697    0.8997   -0.8508 H   0  0  0  0  0  0  0  0  0  0  0  0
    3.2872   -1.9351    0.0048 H   0  0  0  0  0  0  0  0  0  0  0  0
    2.2948    2.2564   -0.0001 H   0  0  0  0  0  0  0  0  0  0  0  0
    4.7921   -0.3057    0.0050 H   0  0  0  0  0  0  0  0  0  0  0  0
  1  6  2  0  0  0  0
  2 12  1  0  0  0  0
  2 23  1  0  0  0  0
  3  4  1  0  0  0  0
  3  6  1  0  0  0  0
  3 15  1  0  0  0  0
  4  7  2  0  0  0  0
  4  8  1  0  0  0  0
  5  6  1  0  0  0  0
  5  9  1  0  0  0  0
  5 13  1  0  0  0  0
  5 14  1  0  0  0  0
  7 10  1  0  0  0  0
  7 16  1  0  0  0  0
  8 11  2  0  0  0  0
  8 17  1  0  0  0  0
  9 18  1  0  0  0  0
  9 19  1  0  0  0  0
  9 20  1  0  0  0  0
 10 12  2  0  0  0  0
 10 21  1  0  0  0  0
 11 12  1  0  0  0  0
 11 22  1  0  0  0  0
M  END
> <PUBCHEM_COMPOUND_CID>
74325

> <PUBCHEM_CONFORMER_RMSD>
0.6

> <PUBCHEM_CONFORMER_DIVERSEORDER>
1
3
2

> <PUBCHEM_MMFF94_PARTIAL_CHARGES>
17
1 -0.57
10 -0.15
11 -0.15
12 0.08
15 0.37
16 0.15
17 0.15
2 -0.53
21 0.15
22 0.15
23 0.45
3 -0.55
4 0.12
5 0.06
6 0.57
7 -0.15
8 -0.15

> <PUBCHEM_EFFECTIVE_ROTOR_COUNT>
3

> <PUBCHEM_PHARMACOPHORE_FEATURES>
5
1 1 acceptor
1 2 donor
1 3 donor
1 9 hydrophobe
6 4 7 8 10 11 12 rings

> <PUBCHEM_HEAVY_ATOM_COUNT>
12

> <PUBCHEM_ATOM_DEF_STEREO_COUNT>
0

> <PUBCHEM_ATOM_UDEF_STEREO_COUNT>
0

> <PUBCHEM_BOND_DEF_STEREO_COUNT>
0

> <PUBCHEM_BOND_UDEF_STEREO_COUNT>
0

> <PUBCHEM_ISOTOPIC_ATOM_COUNT>
0

> <PUBCHEM_COMPONENT_COUNT>
1

> <PUBCHEM_CACTVS_TAUTO_COUNT>
4

> <PUBCHEM_CONFORMER_ID>
0001225500000001

> <PUBCHEM_MMFF94_ENERGY>
28.1634

> <PUBCHEM_FEATURE_SELFOVERLAP>
25.371

> <PUBCHEM_SHAPE_FINGERPRINT>
10219947 1 18407761438897785270
10608611 8 18408599245404997229
11062470 55 18412825793660689475
11471102 20 18410853252562502999
12932764 1 17059761261223158755
13380535 76 18409168835124799994
14144814 61 18411700958979530947
14325111 11 18410575067488497477
15442244 35 18051695447155883187
15775835 57 18273215321966939703
18522853 276 18341892987133250073
200 152 18202277014087294015
20201158 50 18407761434618791779
20279233 1 17894355479693273851
20645477 70 18339920407734195079
20871998 22 18054509102213342054
23402539 116 18411128160850742359
23402655 69 18341326713265382461
528886 8 18411414038200638250

> <PUBCHEM_SHAPE_MULTIPOLES>
230.23
7.61
1.34
0.59
5.07
0.05
0
-0.69
0.03
-0.47
0
0.01
0.01
0

> <PUBCHEM_SHAPE_SELFOVERLAP>
471.362

> <PUBCHEM_SHAPE_VOLUME>
133.2

> <PUBCHEM_COORDINATE_TYPE>
2
5
10

$$$$
