480856
  -OEChem-10241302513D

 50 53  0     1  0  0  0  0  0999 V2000
   -0.8266    0.1616   -1.3996 O   0  0  0  0  0  0  0  0  0  0  0  0
   -5.0615    0.1528    0.8998 O   0  0  0  0  0  0  0  0  0  0  0  0
    3.1396   -2.3753   -0.5403 O   0  0  0  0  0  0  0  0  0  0  0  0
    6.8594    0.5705   -0.0962 O   0  0  0  0  0  0  0  0  0  0  0  0
    1.2531   -0.2442   -0.1782 C   0  0  1  0  0  0  0  0  0  0  0  0
    0.6038    0.1365    1.1562 C   0  0  0  0  0  0  0  0  0  0  0  0
   -0.8964    0.1423    1.0343 C   0  0  0  0  0  0  0  0  0  0  0  0
    0.5509    0.5364   -1.2908 C   0  0  0  0  0  0  0  0  0  0  0  0
   -1.5318    0.1666   -0.2188 C   0  0  0  0  0  0  0  0  0  0  0  0
    2.7533   -0.0405   -0.1584 C   0  0  0  0  0  0  0  0  0  0  0  0
   -2.9377    0.1555   -0.3065 C   0  0  0  0  0  0  0  0  0  0  0  0
   -5.7974    0.0842   -0.3382 C   0  0  0  0  0  0  0  0  0  0  0  0
   -3.6949    0.1510    0.8695 C   0  0  0  0  0  0  0  0  0  0  0  0
   -1.6748    0.1500    2.1974 C   0  0  0  0  0  0  0  0  0  0  0  0
   -3.6333    0.1604   -1.5881 C   0  0  0  0  0  0  0  0  0  0  0  0
   -3.0650    0.1542    2.1154 C   0  0  0  0  0  0  0  0  0  0  0  0
   -4.9673    0.1248   -1.5963 C   0  0  0  0  0  0  0  0  0  0  0  0
    3.6224   -1.1170   -0.3403 C   0  0  0  0  0  0  0  0  0  0  0  0
    3.2658    1.2415    0.0443 C   0  0  0  0  0  0  0  0  0  0  0  0
   -6.7596    1.2779   -0.3301 C   0  0  0  0  0  0  0  0  0  0  0  0
   -6.5970   -1.2233   -0.2990 C   0  0  0  0  0  0  0  0  0  0  0  0
    5.0019   -0.9117   -0.3194 C   0  0  0  0  0  0  0  0  0  0  0  0
    4.6452    1.4465    0.0653 C   0  0  0  0  0  0  0  0  0  0  0  0
    5.5134    0.3701   -0.1165 C   0  0  0  0  0  0  0  0  0  0  0  0
    2.9206   -3.1770    0.6187 C   0  0  0  0  0  0  0  0  0  0  0  0
    7.3139    1.9063    0.1159 C   0  0  0  0  0  0  0  0  0  0  0  0
    1.0180   -1.3023   -0.3535 H   0  0  0  0  0  0  0  0  0  0  0  0
    0.9117    1.1357    1.4877 H   0  0  0  0  0  0  0  0  0  0  0  0
    0.9157   -0.5751    1.9310 H   0  0  0  0  0  0  0  0  0  0  0  0
    0.6104    1.6231   -1.1480 H   0  0  0  0  0  0  0  0  0  0  0  0
    1.0168    0.3169   -2.2585 H   0  0  0  0  0  0  0  0  0  0  0  0
   -1.2004    0.1478    3.1756 H   0  0  0  0  0  0  0  0  0  0  0  0
   -3.0755    0.1869   -2.5163 H   0  0  0  0  0  0  0  0  0  0  0  0
   -3.6534    0.1563    3.0295 H   0  0  0  0  0  0  0  0  0  0  0  0
   -5.4849    0.1203   -2.5525 H   0  0  0  0  0  0  0  0  0  0  0  0
    2.6093    2.0961    0.1829 H   0  0  0  0  0  0  0  0  0  0  0  0
   -7.3834    1.2707    0.5716 H   0  0  0  0  0  0  0  0  0  0  0  0
   -7.4197    1.2802   -1.2045 H   0  0  0  0  0  0  0  0  0  0  0  0
   -6.2065    2.2250   -0.3138 H   0  0  0  0  0  0  0  0  0  0  0  0
   -7.2190   -1.2738    0.6025 H   0  0  0  0  0  0  0  0  0  0  0  0
   -5.9266   -2.0904   -0.2590 H   0  0  0  0  0  0  0  0  0  0  0  0
   -7.2484   -1.3329   -1.1732 H   0  0  0  0  0  0  0  0  0  0  0  0
    5.6797   -1.7498   -0.4620 H   0  0  0  0  0  0  0  0  0  0  0  0
    4.9746    2.4673    0.2262 H   0  0  0  0  0  0  0  0  0  0  0  0
    2.2700   -2.6686    1.3365 H   0  0  0  0  0  0  0  0  0  0  0  0
    3.8761   -3.4237    1.0923 H   0  0  0  0  0  0  0  0  0  0  0  0
    2.4362   -4.1059    0.3054 H   0  0  0  0  0  0  0  0  0  0  0  0
    8.4085    1.8812    0.1025 H   0  0  0  0  0  0  0  0  0  0  0  0
    7.0149    2.2815    1.1006 H   0  0  0  0  0  0  0  0  0  0  0  0
    6.9994    2.5718   -0.6951 H   0  0  0  0  0  0  0  0  0  0  0  0
  1  8  1  0  0  0  0
  1  9  1  0  0  0  0
  2 12  1  0  0  0  0
  2 13  1  0  0  0  0
  3 18  1  0  0  0  0
  3 25  1  0  0  0  0
  4 24  1  0  0  0  0
  4 26  1  0  0  0  0
  5  6  1  0  0  0  0
  5  8  1  0  0  0  0
  5 10  1  0  0  0  0
  5 27  1  0  0  0  0
  6  7  1  0  0  0  0
  6 28  1  0  0  0  0
  6 29  1  0  0  0  0
  7  9  2  0  0  0  0
  7 14  1  0  0  0  0
  8 30  1  0  0  0  0
  8 31  1  0  0  0  0
  9 11  1  0  0  0  0
 10 18  2  0  0  0  0
 10 19  1  0  0  0  0
 11 13  2  0  0  0  0
 11 15  1  0  0  0  0
 12 17  1  0  0  0  0
 12 20  1  0  0  0  0
 12 21  1  0  0  0  0
 13 16  1  0  0  0  0
 14 16  2  0  0  0  0
 14 32  1  0  0  0  0
 15 17  2  0  0  0  0
 15 33  1  0  0  0  0
 16 34  1  0  0  0  0
 17 35  1  0  0  0  0
 18 22  1  0  0  0  0
 19 23  2  0  0  0  0
 19 36  1  0  0  0  0
 20 37  1  0  0  0  0
 20 38  1  0  0  0  0
 20 39  1  0  0  0  0
 21 40  1  0  0  0  0
 21 41  1  0  0  0  0
 21 42  1  0  0  0  0
 22 24  2  0  0  0  0
 22 43  1  0  0  0  0
 23 24  1  0  0  0  0
 23 44  1  0  0  0  0
 25 45  1  0  0  0  0
 25 46  1  0  0  0  0
 25 47  1  0  0  0  0
 26 48  1  0  0  0  0
 26 49  1  0  0  0  0
 26 50  1  0  0  0  0
M  END
> <PUBCHEM_COMPOUND_CID>
480856

> <PUBCHEM_CONFORMER_RMSD>
0.8

> <PUBCHEM_CONFORMER_DIVERSEORDER>
1
7
6
4
3
2
5

> <PUBCHEM_MMFF94_PARTIAL_CHARGES>
31
1 -0.36
10 -0.14
11 0.03
12 0.42
13 0.08
14 -0.15
15 -0.18
16 -0.15
17 -0.29
18 0.08
19 -0.15
2 -0.36
22 -0.15
23 -0.15
24 0.08
25 0.28
26 0.28
3 -0.36
32 0.15
33 0.15
34 0.15
35 0.15
36 0.15
4 -0.36
43 0.15
44 0.15
5 0.14
6 0.14
7 -0.14
8 0.28
9 0.08

> <PUBCHEM_EFFECTIVE_ROTOR_COUNT>
4.2

> <PUBCHEM_PHARMACOPHORE_FEATURES>
9
1 1 acceptor
1 2 acceptor
1 3 acceptor
1 4 acceptor
3 12 20 21 hydrophobe
6 1 5 6 7 8 9 rings
6 10 18 19 22 23 24 rings
6 2 11 12 13 15 17 rings
6 7 9 11 13 14 16 rings

> <PUBCHEM_HEAVY_ATOM_COUNT>
26

> <PUBCHEM_ATOM_DEF_STEREO_COUNT>
1

> <PUBCHEM_ATOM_UDEF_STEREO_COUNT>
0

> <PUBCHEM_BOND_DEF_STEREO_COUNT>
0

> <PUBCHEM_BOND_UDEF_STEREO_COUNT>
0

> <PUBCHEM_ISOTOPIC_ATOM_COUNT>
0

> <PUBCHEM_COMPONENT_COUNT>
1

> <PUBCHEM_CACTVS_TAUTO_COUNT>
1

> <PUBCHEM_CONFORMER_ID>
0007565800000001

> <PUBCHEM_MMFF94_ENERGY>
105.8228

> <PUBCHEM_FEATURE_SELFOVERLAP>
45.73

> <PUBCHEM_SHAPE_FINGERPRINT>
10595046 47 18343302539744473057
10670039 82 15697729129293205392
11059845 2 15333791682670017130
11135609 187 18343016687953423291
11315181 36 17346319327929665801
11646440 116 17095250198444958901
11796584 16 18202562861409875287
12107183 9 17196309421166581739
12166972 35 17775003522141493456
12236239 1 17704077269960045424
12516196 113 18407759239690264412
12596602 18 18060142028624730298
12730499 353 18333731312889961350
12788726 201 16988849341448955195
13288520 33 15410895176248740881
13533116 47 18060417972026623950
13583140 156 18270969045649956939
13631057 29 18057036028578020047
13862211 1 15697994137808265061
14294032 229 14057829449093424111
14386348 63 17603594006056946426
15183329 4 18060415777714898289
15461852 350 17240769531214226554
16087824 20 15913061859877139569
17138139 8 17701793665898606279
17349148 13 16702299044886704613
18222031 100 15554437492748626585
18335252 98 18410296947683540187
18681886 176 16128369411289688184
18927931 339 15267339631159835005
19489759 90 16660361489512553333
200 152 18272370854013372745
20511986 3 17917699189128742013
20645477 70 18335700482133105830
21033650 10 14925074717600905582
21049683 118 18124292034948648242
21065198 48 17632303319894352946
21133410 230 16546347914843476642
21150785 3 18343018921468233733
21267235 1 15697996384313472805
22224240 67 18335698382362966394
23035841 295 15339122342146330732
23516275 137 17987257576754419671
23522609 53 16342601589550341073
23536379 177 18411980235460532645
23559900 14 18335700589079780385
23569943 247 17461151063688226123
2838139 119 11530753826490138719
3004659 81 16845566530835368393
335352 9 15647054893564313255
3633792 109 18270964531665734807
4073 2 18261396675722708611
4093350 32 18261389984532601883
4098825 35 18338514132699574069
4325135 7 16917072165372114868
4340502 62 18411979174308555894
4403749 210 18045505468260920394
5385378 56 16226323699765226113
5486654 2 16415759734661134685
59755656 215 16081364112518375530
7226269 152 16588021312349211253

> <PUBCHEM_SHAPE_MULTIPOLES>
511.59
17.92
1.71
1.51
2.39
1.34
-0.48
-4.59
2.34
2.92
0.01
-1.89
-0.05
0.38

> <PUBCHEM_SHAPE_SELFOVERLAP>
1118.776

> <PUBCHEM_SHAPE_VOLUME>
278.5

> <PUBCHEM_COORDINATE_TYPE>
2
5
10

$$$$
