4406479
  -OEChem-10241303073D

 49 52  0     1  0  0  0  0  0999 V2000
   -1.4176    2.9353    2.0477 F   0  0  0  0  0  0  0  0  0  0  0  0
    0.3649    2.3025    3.1212 F   0  0  0  0  0  0  0  0  0  0  0  0
    1.1757    4.0304    0.6979 O   0  0  0  0  0  0  0  0  0  0  0  0
    1.2347   -0.8888   -0.3618 O   0  0  0  0  0  0  0  0  0  0  0  0
   -3.3200   -2.6683    0.1882 O   0  0  0  0  0  0  0  0  0  0  0  0
   -5.0962   -0.9426   -1.0746 O   0  0  0  0  0  0  0  0  0  0  0  0
    0.6326    1.8132    0.1108 N   0  0  0  0  0  0  0  0  0  0  0  0
   -0.1830    1.0446    1.0303 C   0  0  1  0  0  0  0  0  0  0  0  0
   -0.2416    2.2932    1.9196 C   0  0  0  0  0  0  0  0  0  0  0  0
    0.6406    2.9554    0.8444 C   0  0  0  0  0  0  0  0  0  0  0  0
   -1.5182    0.5004    0.4595 C   0  0  0  0  0  0  0  0  0  0  0  0
    1.3854    1.4266   -0.9762 C   0  0  0  0  0  0  0  0  0  0  0  0
   -1.8283   -0.8543    0.5799 C   0  0  0  0  0  0  0  0  0  0  0  0
   -2.4090    1.3660   -0.1751 C   0  0  0  0  0  0  0  0  0  0  0  0
    1.6866    0.0750   -1.2131 C   0  0  0  0  0  0  0  0  0  0  0  0
    1.8679    2.3913   -1.8755 C   0  0  0  0  0  0  0  0  0  0  0  0
   -3.0292   -1.3432    0.0659 C   0  0  0  0  0  0  0  0  0  0  0  0
   -3.6098    0.8769   -0.6893 C   0  0  0  0  0  0  0  0  0  0  0  0
   -3.9200   -0.4777   -0.5687 C   0  0  0  0  0  0  0  0  0  0  0  0
    2.4494   -0.3008   -2.3189 C   0  0  0  0  0  0  0  0  0  0  0  0
    2.6305    2.0155   -2.9813 C   0  0  0  0  0  0  0  0  0  0  0  0
    2.9213    0.6694   -3.2030 C   0  0  0  0  0  0  0  0  0  0  0  0
    2.1781   -1.6766    0.2743 C   0  0  0  0  0  0  0  0  0  0  0  0
   -2.8877   -3.5270   -0.8655 C   0  0  0  0  0  0  0  0  0  0  0  0
   -6.2250   -0.9341   -0.2030 C   0  0  0  0  0  0  0  0  0  0  0  0
    3.2916   -1.0760    0.8344 C   0  0  0  0  0  0  0  0  0  0  0  0
    1.9844   -3.0452    0.3344 C   0  0  0  0  0  0  0  0  0  0  0  0
    4.2424   -1.8701    1.4756 C   0  0  0  0  0  0  0  0  0  0  0  0
    2.9352   -3.8392    0.9756 C   0  0  0  0  0  0  0  0  0  0  0  0
    4.0643   -3.2517    1.5463 C   0  0  0  0  0  0  0  0  0  0  0  0
    0.3972    0.2789    1.5633 H   0  0  0  0  0  0  0  0  0  0  0  0
   -1.1414   -1.5328    1.0792 H   0  0  0  0  0  0  0  0  0  0  0  0
   -2.1842    2.4227   -0.2885 H   0  0  0  0  0  0  0  0  0  0  0  0
    1.6464    3.4468   -1.7418 H   0  0  0  0  0  0  0  0  0  0  0  0
   -4.2980    1.5564   -1.1848 H   0  0  0  0  0  0  0  0  0  0  0  0
    2.6758   -1.3458   -2.5136 H   0  0  0  0  0  0  0  0  0  0  0  0
    2.9945    2.7703   -3.6723 H   0  0  0  0  0  0  0  0  0  0  0  0
    3.5121    0.3766   -4.0659 H   0  0  0  0  0  0  0  0  0  0  0  0
   -1.7969   -3.5040   -0.9553 H   0  0  0  0  0  0  0  0  0  0  0  0
   -3.3493   -3.2353   -1.8141 H   0  0  0  0  0  0  0  0  0  0  0  0
   -3.1976   -4.5476   -0.6248 H   0  0  0  0  0  0  0  0  0  0  0  0
   -6.4609    0.0883    0.1089 H   0  0  0  0  0  0  0  0  0  0  0  0
   -6.0393   -1.5614    0.6746 H   0  0  0  0  0  0  0  0  0  0  0  0
   -7.0816   -1.3401   -0.7479 H   0  0  0  0  0  0  0  0  0  0  0  0
    3.4441   -0.0012    0.8106 H   0  0  0  0  0  0  0  0  0  0  0  0
    1.1054   -3.5036   -0.1089 H   0  0  0  0  0  0  0  0  0  0  0  0
    5.1193   -1.4123    1.9241 H   0  0  0  0  0  0  0  0  0  0  0  0
    2.7961   -4.9149    1.0309 H   0  0  0  0  0  0  0  0  0  0  0  0
    4.8039   -3.8699    2.0466 H   0  0  0  0  0  0  0  0  0  0  0  0
  1  9  1  0  0  0  0
  2  9  1  0  0  0  0
  3 10  2  0  0  0  0
  4 15  1  0  0  0  0
  4 23  1  0  0  0  0
  5 17  1  0  0  0  0
  5 24  1  0  0  0  0
  6 19  1  0  0  0  0
  6 25  1  0  0  0  0
  7  8  1  0  0  0  0
  7 10  1  0  0  0  0
  7 12  1  0  0  0  0
  8  9  1  0  0  0  0
  8 11  1  0  0  0  0
  8 31  1  0  0  0  0
  9 10  1  0  0  0  0
 11 13  2  0  0  0  0
 11 14  1  0  0  0  0
 12 15  1  0  0  0  0
 12 16  2  0  0  0  0
 13 17  1  0  0  0  0
 13 32  1  0  0  0  0
 14 18  2  0  0  0  0
 14 33  1  0  0  0  0
 15 20  2  0  0  0  0
 16 21  1  0  0  0  0
 16 34  1  0  0  0  0
 17 19  2  0  0  0  0
 18 19  1  0  0  0  0
 18 35  1  0  0  0  0
 20 22  1  0  0  0  0
 20 36  1  0  0  0  0
 21 22  2  0  0  0  0
 21 37  1  0  0  0  0
 22 38  1  0  0  0  0
 23 26  2  0  0  0  0
 23 27  1  0  0  0  0
 24 39  1  0  0  0  0
 24 40  1  0  0  0  0
 24 41  1  0  0  0  0
 25 42  1  0  0  0  0
 25 43  1  0  0  0  0
 25 44  1  0  0  0  0
 26 28  1  0  0  0  0
 26 45  1  0  0  0  0
 27 29  2  0  0  0  0
 27 46  1  0  0  0  0
 28 30  2  0  0  0  0
 28 47  1  0  0  0  0
 29 30  1  0  0  0  0
 29 48  1  0  0  0  0
 30 49  1  0  0  0  0
M  END
> <PUBCHEM_COMPOUND_CID>
4406479

> <PUBCHEM_CONFORMER_RMSD>
0.8

> <PUBCHEM_CONFORMER_DIVERSEORDER>
3
65
77
66
139
60
94
53
137
57
44
166
32
152
96
159
163
140
130
131
154
11
141
72
155
105
59
135
47
20
85
64
15
97
171
51
8
78
71
157
147
106
165
162
98
76
16
63
161
5
67
54
153
34
170
134
148
74
102
4
107
1
23
119
84
19
79
132
145
149
150
95
50
129
87
38
167
14
69
138
113
24
169
7
111
108
103
88
28
142
48
13
61
42
90
22
31
109
62
151
122
45
10
58
37
70
99
81
125
73
40
89
86
29
168
121
126
93
117
164
21
75
9
128
80
158
49
91
160
146
46
100
114
115
104
124
27
92
133
112
144
35
36
143
136
18
2
30
56
110
82
43
52
26
39
12
33
17
118
83
41
116
101
55
123
25
127
68
120
156
6

> <PUBCHEM_MMFF94_PARTIAL_CHARGES>
42
1 -0.3
10 0.58
11 -0.11
12 0.12
13 -0.15
14 -0.15
15 0.08
16 -0.15
17 0.08
18 -0.15
19 0.08
2 -0.3
20 -0.15
21 -0.15
22 -0.15
23 0.08
24 0.28
25 0.28
26 -0.15
27 -0.15
28 -0.15
29 -0.15
3 -0.57
30 -0.15
32 0.15
33 0.15
34 0.15
35 0.15
36 0.15
37 0.15
38 0.15
4 -0.17
45 0.15
46 0.15
47 0.15
48 0.15
49 0.15
5 -0.36
6 -0.36
7 -0.4
8 0.33
9 0.65

> <PUBCHEM_EFFECTIVE_ROTOR_COUNT>
6.6

> <PUBCHEM_PHARMACOPHORE_FEATURES>
8
1 3 acceptor
1 4 acceptor
1 5 acceptor
1 6 acceptor
4 7 8 9 10 rings
6 11 13 14 17 18 19 rings
6 12 15 16 20 21 22 rings
6 23 26 27 28 29 30 rings

> <PUBCHEM_HEAVY_ATOM_COUNT>
30

> <PUBCHEM_ATOM_DEF_STEREO_COUNT>
0

> <PUBCHEM_ATOM_UDEF_STEREO_COUNT>
1

> <PUBCHEM_BOND_DEF_STEREO_COUNT>
0

> <PUBCHEM_BOND_UDEF_STEREO_COUNT>
0

> <PUBCHEM_ISOTOPIC_ATOM_COUNT>
0

> <PUBCHEM_COMPONENT_COUNT>
1

> <PUBCHEM_CACTVS_TAUTO_COUNT>
1

> <PUBCHEM_CONFORMER_ID>
00433CCF00000003

> <PUBCHEM_MMFF94_ENERGY>
117.5646

> <PUBCHEM_FEATURE_SELFOVERLAP>
40.604

> <PUBCHEM_SHAPE_FINGERPRINT>
10369192 42 15074883344515860662
107951 10 17476912928187343680
11552529 35 17616805536477401130
11578080 2 18190728753151405556
11582403 64 16119353665018334346
12160290 23 17627813919518936945
12166972 35 18187642457891499727
12553582 1 18129681750120760483
12633257 1 17479449046292854850
12788726 201 18058188149845091289
13004483 165 17535451635682007642
13009979 54 18194129512313416394
131258 43 18198082321615236030
133893 2 17460626691314919308
14068700 675 18264481794082005322
1813 80 17604983724541059490
18336668 15 18188198819502167670
20600515 1 18130219354981395617
20642791 105 18120646934490030781
22393880 68 18124604342794086247
23419403 2 17766516284792030576
23557571 272 17703235005293020182
23559900 14 18187914123727096895
238 59 17387154111416081302
3380486 77 18119536431623992407
340366 18 17823978922996518069
376196 1 16011008759489818469
392239 28 18271512179036030634
404807 78 16378614091490790171
46194498 28 17385719205839952223
463206 1 18411691106605077203
474144 1 18333739017502589486
6669772 16 17910108354884377328
81228 2 17486226525675807001
9841814 1 17989208183179019625
9981440 41 17390519836757283800

> <PUBCHEM_SHAPE_MULTIPOLES>
574.38
8.45
4.82
2.53
9.61
1.07
-0.52
7.73
-1.73
-3.07
1.35
-2.36
-2.3
-3.38

> <PUBCHEM_SHAPE_SELFOVERLAP>
1263.716

> <PUBCHEM_SHAPE_VOLUME>
311

> <PUBCHEM_COORDINATE_TYPE>
2
5
10

$$$$
