175147
  -OEChem-10241302493D

 49 50  0     1  0  0  0  0  0999 V2000
   -3.0990    2.1326   -0.7890 S   0  0  0  0  0  0  0  0  0  0  0  0
    2.9610   -1.9233   -2.3891 O   0  0  0  0  0  0  0  0  0  0  0  0
    5.0369   -1.1295   -1.9673 O   0  0  0  0  0  0  0  0  0  0  0  0
    2.9303   -2.9774    0.6904 O   0  0  0  0  0  0  0  0  0  0  0  0
   -2.8185    3.5487   -0.5884 O   0  0  0  0  0  0  0  0  0  0  0  0
   -3.7136    1.6927   -2.0353 O   0  0  0  0  0  0  0  0  0  0  0  0
    6.0881    0.6909    2.4094 O   0  0  0  0  0  0  0  0  0  0  0  0
   -5.9497   -1.3091   -0.2270 O   0  0  0  0  0  0  0  0  0  0  0  0
    2.0167   -0.9122   -0.0560 N   0  0  0  0  0  0  0  0  0  0  0  0
   -4.0239    1.5558    0.5249 N   0  0  0  0  0  0  0  0  0  0  0  0
    6.9766    2.4268    1.1864 N   0  0  0  0  0  0  0  0  0  0  0  0
   -5.0508   -0.3194   -0.6058 N   0  0  0  0  0  0  0  0  0  0  0  0
    3.2234   -0.3283   -0.5853 C   0  0  1  0  0  0  0  0  0  0  0  0
    4.2433   -0.0475    0.5249 C   0  0  0  0  0  0  0  0  0  0  0  0
    0.7692   -0.1698   -0.2347 C   0  0  0  0  0  0  0  0  0  0  0  0
    5.1767    1.1292    0.2265 C   0  0  0  0  0  0  0  0  0  0  0  0
    3.8420   -1.1656   -1.6933 C   0  0  0  0  0  0  0  0  0  0  0  0
    1.9801   -2.2046    0.5432 C   0  0  0  0  0  0  0  0  0  0  0  0
    0.6048    1.0744    0.3740 C   0  0  0  0  0  0  0  0  0  0  0  0
   -0.2561   -0.7061   -1.0138 C   0  0  0  0  0  0  0  0  0  0  0  0
   -1.6101    1.2462   -0.5756 C   0  0  0  0  0  0  0  0  0  0  0  0
   -0.5848    1.7825    0.2035 C   0  0  0  0  0  0  0  0  0  0  0  0
   -1.4457    0.0019   -1.1842 C   0  0  0  0  0  0  0  0  0  0  0  0
    6.1089    1.3785    1.3917 C   0  0  0  0  0  0  0  0  0  0  0  0
    0.6342   -2.6288    1.0850 C   0  0  0  0  0  0  0  0  0  0  0  0
   -4.8775    0.4273    0.4885 C   0  0  0  0  0  0  0  0  0  0  0  0
   -5.6340   -0.0385    1.5777 C   0  0  0  0  0  0  0  0  0  0  0  0
   -6.2897   -1.1312    1.0752 C   0  0  0  0  0  0  0  0  0  0  0  0
   -7.2386   -2.0962    1.6436 C   0  0  0  0  0  0  0  0  0  0  0  0
    2.9598    0.6226   -1.0683 H   0  0  0  0  0  0  0  0  0  0  0  0
    4.8382   -0.9467    0.7337 H   0  0  0  0  0  0  0  0  0  0  0  0
    3.7062    0.1788    1.4567 H   0  0  0  0  0  0  0  0  0  0  0  0
    5.7823    0.9378   -0.6648 H   0  0  0  0  0  0  0  0  0  0  0  0
    4.5923    2.0402    0.0532 H   0  0  0  0  0  0  0  0  0  0  0  0
    1.3934    1.5009    0.9883 H   0  0  0  0  0  0  0  0  0  0  0  0
   -0.1347   -1.6585   -1.5227 H   0  0  0  0  0  0  0  0  0  0  0  0
   -0.6941    2.7461    0.6931 H   0  0  0  0  0  0  0  0  0  0  0  0
   -2.2279   -0.4342   -1.7988 H   0  0  0  0  0  0  0  0  0  0  0  0
    0.0170   -3.0570    0.2926 H   0  0  0  0  0  0  0  0  0  0  0  0
    0.1153   -1.8207    1.6054 H   0  0  0  0  0  0  0  0  0  0  0  0
    0.7969   -3.4173    1.8290 H   0  0  0  0  0  0  0  0  0  0  0  0
   -4.0362    2.1139    1.3881 H   0  0  0  0  0  0  0  0  0  0  0  0
    3.3988   -2.4300   -3.1059 H   0  0  0  0  0  0  0  0  0  0  0  0
    7.6550    2.6898    1.8934 H   0  0  0  0  0  0  0  0  0  0  0  0
    6.9720    2.9737    0.3314 H   0  0  0  0  0  0  0  0  0  0  0  0
   -5.6958    0.3583    2.5805 H   0  0  0  0  0  0  0  0  0  0  0  0
   -8.1851   -2.0743    1.0947 H   0  0  0  0  0  0  0  0  0  0  0  0
   -6.8335   -3.1114    1.5902 H   0  0  0  0  0  0  0  0  0  0  0  0
   -7.4505   -1.8708    2.6934 H   0  0  0  0  0  0  0  0  0  0  0  0
  1  5  2  0  0  0  0
  1  6  2  0  0  0  0
  1 10  1  0  0  0  0
  1 21  1  0  0  0  0
  2 17  1  0  0  0  0
  2 43  1  0  0  0  0
  3 17  2  0  0  0  0
  4 18  2  0  0  0  0
  7 24  2  0  0  0  0
  8 12  1  0  0  0  0
  8 28  1  0  0  0  0
  9 13  1  0  0  0  0
  9 15  1  0  0  0  0
  9 18  1  0  0  0  0
 10 26  1  0  0  0  0
 10 42  1  0  0  0  0
 11 24  1  0  0  0  0
 11 44  1  0  0  0  0
 11 45  1  0  0  0  0
 12 26  2  0  0  0  0
 13 14  1  0  0  0  0
 13 17  1  0  0  0  0
 13 30  1  0  0  0  0
 14 16  1  0  0  0  0
 14 31  1  0  0  0  0
 14 32  1  0  0  0  0
 15 19  2  0  0  0  0
 15 20  1  0  0  0  0
 16 24  1  0  0  0  0
 16 33  1  0  0  0  0
 16 34  1  0  0  0  0
 18 25  1  0  0  0  0
 19 22  1  0  0  0  0
 19 35  1  0  0  0  0
 20 23  2  0  0  0  0
 20 36  1  0  0  0  0
 21 22  2  0  0  0  0
 21 23  1  0  0  0  0
 22 37  1  0  0  0  0
 23 38  1  0  0  0  0
 25 39  1  0  0  0  0
 25 40  1  0  0  0  0
 25 41  1  0  0  0  0
 26 27  1  0  0  0  0
 27 28  2  0  0  0  0
 27 46  1  0  0  0  0
 28 29  1  0  0  0  0
 29 47  1  0  0  0  0
 29 48  1  0  0  0  0
 29 49  1  0  0  0  0
M  END
> <PUBCHEM_COMPOUND_CID>
175147

> <PUBCHEM_CONFORMER_RMSD>
1

> <PUBCHEM_CONFORMER_DIVERSEORDER>
1
82
119
131
74
146
48
125
25
121
126
14
123
51
122
35
65
57
77
59
79
120
112
71
80
69
105
16
78
52
129
68
94
145
139
38
127
106
32
64
84
36
83
114
28
111
58
47
110
148
56
66
61
40
31
70
147
102
18
76
29
85
101
10
96
140
113
67
44
2
15
53
89
27
143
97
63
99
7
54
109
107
138
30
117
24
73
116
37
128
72
9
81
55
39
41
20
3
95
124
130
86
144
91
118
98
50
19
45
4
149
26
136
5
142
46
62
23
100
92
22
75
103
11
33
90
34
6
49
135
60
108
42
17
134
93
13
132
43
141
8
21
133
12
87
88
137
104
115

> <PUBCHEM_MMFF94_PARTIAL_CHARGES>
37
1 1.45
10 -0.7
11 -0.8
12 -0.41
13 0.36
15 0.12
16 0.06
17 0.66
18 0.57
19 -0.15
2 -0.65
20 -0.15
21 -0.01
22 -0.15
23 -0.15
24 0.57
25 0.06
26 0.43
27 -0.15
28 -0.04
29 0.18
3 -0.57
35 0.15
36 0.15
37 0.15
38 0.15
4 -0.57
42 0.42
43 0.5
44 0.37
45 0.37
46 0.15
5 -0.65
6 -0.65
7 -0.57
8 -0.02
9 -0.48

> <PUBCHEM_EFFECTIVE_ROTOR_COUNT>
10

> <PUBCHEM_PHARMACOPHORE_FEATURES>
12
1 10 donor
1 11 donor
1 12 acceptor
1 2 acceptor
1 3 acceptor
1 4 acceptor
1 5 acceptor
1 6 acceptor
1 7 acceptor
3 2 3 17 anion
5 8 12 26 27 28 rings
6 15 19 20 21 22 23 rings

> <PUBCHEM_HEAVY_ATOM_COUNT>
29

> <PUBCHEM_ATOM_DEF_STEREO_COUNT>
1

> <PUBCHEM_ATOM_UDEF_STEREO_COUNT>
0

> <PUBCHEM_BOND_DEF_STEREO_COUNT>
0

> <PUBCHEM_BOND_UDEF_STEREO_COUNT>
0

> <PUBCHEM_ISOTOPIC_ATOM_COUNT>
0

> <PUBCHEM_COMPONENT_COUNT>
1

> <PUBCHEM_CACTVS_TAUTO_COUNT>
4

> <PUBCHEM_CONFORMER_ID>
0002AC2B00000001

> <PUBCHEM_MMFF94_ENERGY>
70.2612

> <PUBCHEM_FEATURE_SELFOVERLAP>
60.983

> <PUBCHEM_SHAPE_FINGERPRINT>
10 15 18335134332550212704
12596602 18 17846789485810500595
12730499 353 17989490715107912814
13782708 43 18339367336152833182
13914758 101 13695856013846539509
14251758 9 9727631708968988773
14461889 52 18335696135245894321
15081414 286 17989203738131156512
15183329 4 9799421022280652097
15475509 8 10663829584863783410
16994733 274 13901609897291226498
17349148 13 16660661621663622429
173720 79 17167861984913244658
19377110 9 18335410275255345242
21307412 95 8790612558456508624
21315759 148 18130518439751216011
21585481 104 13973138639301009504
22149856 69 18269857383839496569
23522609 53 15410620319120320977
23559900 14 17462003150633829874
2747138 104 18336560386151174979
4340502 62 18408602565636087754
437795 51 17917714634237385728
5104073 3 18264203608680641033
54076057 255 14261352479042173642
57816373 69 16595870515206274907
59682541 35 18338796835372222377
6328613 192 12607402229955430379
6913067 236 17603584118878551645
77296 10 13479431503404352649

> <PUBCHEM_SHAPE_MULTIPOLES>
539.65
17.59
3.01
1.85
5.2
0.14
0.26
-0.41
-8.72
0.48
-0.23
-1.62
-0.29
3.69

> <PUBCHEM_SHAPE_SELFOVERLAP>
1116.039

> <PUBCHEM_SHAPE_VOLUME>
308.2

> <PUBCHEM_COORDINATE_TYPE>
2
5
10

$$$$
