191120
  -OEChem-10241302523D

 21 22  0     0  0  0  0  0  0999 V2000
   -2.5140   -1.1351   -0.0595 O   0  0  0  0  0  0  0  0  0  0  0  0
   -3.1151    1.0298    0.2211 O   0  0  0  0  0  0  0  0  0  0  0  0
    3.7292   -0.8423   -0.2197 O   0  0  0  0  0  0  0  0  0  0  0  0
    0.1871   -0.4083    0.1190 C   0  0  0  0  0  0  0  0  0  0  0  0
   -0.2147   -1.8406    0.2910 C   0  0  0  0  0  0  0  0  0  0  0  0
   -0.8061    0.5715   -0.0020 C   0  0  0  0  0  0  0  0  0  0  0  0
   -1.4942   -2.0583   -0.4906 C   0  0  0  0  0  0  0  0  0  0  0  0
    1.5336   -0.0287    0.1200 C   0  0  0  0  0  0  0  0  0  0  0  0
   -2.2380    0.1921    0.0563 C   0  0  0  0  0  0  0  0  0  0  0  0
   -0.4543    1.9183   -0.1379 C   0  0  0  0  0  0  0  0  0  0  0  0
    1.8836    1.3144   -0.0207 C   0  0  0  0  0  0  0  0  0  0  0  0
    0.8916    2.2853   -0.1516 C   0  0  0  0  0  0  0  0  0  0  0  0
    2.6113   -0.9980    0.2747 C   0  0  0  0  0  0  0  0  0  0  0  0
    0.5333   -2.5400   -0.0931 H   0  0  0  0  0  0  0  0  0  0  0  0
   -0.3728   -2.0354    1.3579 H   0  0  0  0  0  0  0  0  0  0  0  0
   -1.3508   -1.9327   -1.5707 H   0  0  0  0  0  0  0  0  0  0  0  0
   -1.8740   -3.0706   -0.3194 H   0  0  0  0  0  0  0  0  0  0  0  0
   -1.2110    2.6925   -0.2315 H   0  0  0  0  0  0  0  0  0  0  0  0
    2.9245    1.6286   -0.0212 H   0  0  0  0  0  0  0  0  0  0  0  0
    1.1669    3.3308   -0.2568 H   0  0  0  0  0  0  0  0  0  0  0  0
    2.3896   -1.9129    0.8473 H   0  0  0  0  0  0  0  0  0  0  0  0
  1  7  1  0  0  0  0
  1  9  1  0  0  0  0
  2  9  2  0  0  0  0
  3 13  2  0  0  0  0
  4  5  1  0  0  0  0
  4  6  1  0  0  0  0
  4  8  2  0  0  0  0
  5  7  1  0  0  0  0
  5 14  1  0  0  0  0
  5 15  1  0  0  0  0
  6  9  1  0  0  0  0
  6 10  2  0  0  0  0
  7 16  1  0  0  0  0
  7 17  1  0  0  0  0
  8 11  1  0  0  0  0
  8 13  1  0  0  0  0
 10 12  1  0  0  0  0
 10 18  1  0  0  0  0
 11 12  2  0  0  0  0
 11 19  1  0  0  0  0
 12 20  1  0  0  0  0
 13 21  1  0  0  0  0
M  END
> <PUBCHEM_COMPOUND_CID>
191120

> <PUBCHEM_CONFORMER_RMSD>
0.6

> <PUBCHEM_CONFORMER_DIVERSEORDER>
1
2

> <PUBCHEM_MMFF94_PARTIAL_CHARGES>
17
1 -0.43
10 -0.15
11 -0.15
12 -0.15
13 0.42
18 0.15
19 0.15
2 -0.57
20 0.15
21 0.06
3 -0.57
4 -0.14
5 0.14
6 0.09
7 0.28
8 0.09
9 0.63

> <PUBCHEM_EFFECTIVE_ROTOR_COUNT>
1.6

> <PUBCHEM_PHARMACOPHORE_FEATURES>
4
1 2 acceptor
1 3 acceptor
6 1 4 5 6 7 9 rings
6 4 6 8 10 11 12 rings

> <PUBCHEM_HEAVY_ATOM_COUNT>
13

> <PUBCHEM_ATOM_DEF_STEREO_COUNT>
0

> <PUBCHEM_ATOM_UDEF_STEREO_COUNT>
0

> <PUBCHEM_BOND_DEF_STEREO_COUNT>
0

> <PUBCHEM_BOND_UDEF_STEREO_COUNT>
0

> <PUBCHEM_ISOTOPIC_ATOM_COUNT>
0

> <PUBCHEM_COMPONENT_COUNT>
1

> <PUBCHEM_CACTVS_TAUTO_COUNT>
1

> <PUBCHEM_CONFORMER_ID>
0002EA9000000001

> <PUBCHEM_MMFF94_ENERGY>
39.3271

> <PUBCHEM_FEATURE_SELFOVERLAP>
20.324

> <PUBCHEM_SHAPE_FINGERPRINT>
10967382 1 18266458715481818130
11132069 177 18340481188775967954
12423570 1 12103305826839004386
12524768 44 18338514243756566698
13380535 220 18336264638602630597
14128692 85 18411139168783349964
14911166 2 18337666421602223517
14993402 34 18410853222550453511
16945 1 18337381634999966496
17990270 104 18266174131186123090
193761 8 18194120956442760832
19973954 147 18193838369164524515
20511035 2 18200591539549169796
20588541 1 18269840817644200646
20871998 184 18272368633747486886
21501502 16 18267586990510811244
2334 1 18265893742593480176
23402539 116 18198610060829911686
23419403 2 16542346593913013561
23463225 33 18336265639514737162
23552423 10 18119247513152446414
23559900 14 18269848648435646868
241688 4 18409161129947819664
2748010 2 18337949103253714997
5084963 1 18272930531180492147
528886 8 18339073787816707771
63268167 104 18337391655290770865
7364860 26 18126565854326533344

> <PUBCHEM_SHAPE_MULTIPOLES>
249.93
4.14
2.4
0.64
0.9
0.31
-0.01
-0.94
-0.02
-0.08
-0.15
0
-0.04
-0.21

> <PUBCHEM_SHAPE_SELFOVERLAP>
543.434

> <PUBCHEM_SHAPE_VOLUME>
135.2

> <PUBCHEM_COORDINATE_TYPE>
2
5
10

$$$$
