105728
  -OEChem-10241302573D

 17 17  0     0  0  0  0  0  0999 V2000
   -2.7033    2.0545    0.1395 Cl  0  0  0  0  0  0  0  0  0  0  0  0
    1.3743   -2.1701   -0.1251 O   0  0  0  0  0  0  0  0  0  0  0  0
   -3.2043   -0.9036   -0.0413 O   0  0  0  0  0  0  0  0  0  0  0  0
    2.4286    1.7629   -0.5133 O   0  0  0  0  0  0  0  0  0  0  0  0
    3.1339   -0.1441    0.5029 O   0  0  0  0  0  0  0  0  0  0  0  0
    0.8102    0.1567    0.0189 C   0  0  0  0  0  0  0  0  0  0  0  0
    0.4353   -1.1843   -0.0634 C   0  0  0  0  0  0  0  0  0  0  0  0
   -0.1659    1.1512    0.0815 C   0  0  0  0  0  0  0  0  0  0  0  0
   -0.9156   -1.5309   -0.0829 C   0  0  0  0  0  0  0  0  0  0  0  0
   -1.8917   -0.5363   -0.0205 C   0  0  0  0  0  0  0  0  0  0  0  0
   -1.5168    0.8047    0.0618 C   0  0  0  0  0  0  0  0  0  0  0  0
    2.2155    0.5393    0.0418 C   0  0  0  0  0  0  0  0  0  0  0  0
    0.1107    2.2004    0.1592 H   0  0  0  0  0  0  0  0  0  0  0  0
   -1.1994   -2.5786   -0.1470 H   0  0  0  0  0  0  0  0  0  0  0  0
    2.2672   -1.7917   -0.1535 H   0  0  0  0  0  0  0  0  0  0  0  0
   -3.2642   -1.8725   -0.1009 H   0  0  0  0  0  0  0  0  0  0  0  0
    3.3772    2.0125   -0.4940 H   0  0  0  0  0  0  0  0  0  0  0  0
  1 11  1  0  0  0  0
  2  7  1  0  0  0  0
  2 15  1  0  0  0  0
  3 10  1  0  0  0  0
  3 16  1  0  0  0  0
  4 12  1  0  0  0  0
  4 17  1  0  0  0  0
  5 12  2  0  0  0  0
  6  7  1  0  0  0  0
  6  8  2  0  0  0  0
  6 12  1  0  0  0  0
  7  9  2  0  0  0  0
  8 11  1  0  0  0  0
  8 13  1  0  0  0  0
  9 10  1  0  0  0  0
  9 14  1  0  0  0  0
 10 11  2  0  0  0  0
M  END
> <PUBCHEM_COMPOUND_CID>
105728

> <PUBCHEM_CONFORMER_RMSD>
0.4

> <PUBCHEM_CONFORMER_DIVERSEORDER>
2
3
1

> <PUBCHEM_MMFF94_PARTIAL_CHARGES>
17
1 -0.18
10 0.08
11 0.18
12 0.63
13 0.15
14 0.15
15 0.45
16 0.45
17 0.5
2 -0.53
3 -0.53
4 -0.65
5 -0.57
6 0.09
7 0.08
8 -0.15
9 -0.15

> <PUBCHEM_EFFECTIVE_ROTOR_COUNT>
1

> <PUBCHEM_PHARMACOPHORE_FEATURES>
6
1 2 donor
1 3 donor
1 4 acceptor
1 5 acceptor
3 4 5 12 anion
6 6 7 8 9 10 11 rings

> <PUBCHEM_HEAVY_ATOM_COUNT>
12

> <PUBCHEM_ATOM_DEF_STEREO_COUNT>
0

> <PUBCHEM_ATOM_UDEF_STEREO_COUNT>
0

> <PUBCHEM_BOND_DEF_STEREO_COUNT>
0

> <PUBCHEM_BOND_UDEF_STEREO_COUNT>
0

> <PUBCHEM_ISOTOPIC_ATOM_COUNT>
0

> <PUBCHEM_COMPONENT_COUNT>
1

> <PUBCHEM_CACTVS_TAUTO_COUNT>
12

> <PUBCHEM_CONFORMER_ID>
00019D0000000002

> <PUBCHEM_MMFF94_ENERGY>
32.5152

> <PUBCHEM_FEATURE_SELFOVERLAP>
30.503

> <PUBCHEM_SHAPE_FINGERPRINT>
11206711 2 18340766030959845437
12897270 3 18411136978212833549
13380535 21 18268443347145032033
13380535 76 18339073779464078349
14325111 11 18410855468929385312
14897335 6 18268703922953493533
15279308 100 17977388230995308885
16945 1 18339926016691957823
193761 8 18267305331114426335
19973954 147 18338801104690740893
20511035 2 18056747741861668703
21040471 1 18412545392362440824
21501502 16 18339078181737082419
2334 1 18411983516393553543
23402655 69 18198043804495854501
23463225 33 18335134280793937306
23552423 10 18336267838363964871
23559900 14 18202287979703407164
2748010 2 18267871588176808991
5084963 1 18202005460036650754
528886 8 18339355254103386937
53812653 166 18201431450463633057
53812653 8 18337962314626053436
7364860 26 18056478352949504134

> <PUBCHEM_SHAPE_MULTIPOLES>
225.35
4.27
2.14
0.63
0.01
0.06
0
-1.17
-0.19
-0.33
0.13
0.05
-0.05
-0.2

> <PUBCHEM_SHAPE_SELFOVERLAP>
471.427

> <PUBCHEM_SHAPE_VOLUME>
128.9

> <PUBCHEM_COORDINATE_TYPE>
2
5
10

$$$$
