86805
  -OEChem-10241302493D

 49 50  0     1  0  0  0  0  0999 V2000
   -3.2085    2.9380   -1.3619 O   0  0  0  0  0  0  0  0  0  0  0  0
   -5.3792   -2.1810    1.4705 O   0  0  0  0  0  0  0  0  0  0  0  0
    7.1196   -1.0674   -0.4208 O   0  0  0  0  0  0  0  0  0  0  0  0
   -5.6183   -1.9794   -1.9277 O   0  0  0  0  0  0  0  0  0  0  0  0
   -0.3109    1.3024    0.2746 N   0  0  0  0  0  0  0  0  0  0  0  0
    1.0285    0.9354   -0.1942 C   0  0  1  0  0  0  0  0  0  0  0  0
    1.8350    0.3346    0.9716 C   0  0  0  0  0  0  0  0  0  0  0  0
   -1.0723    1.9298   -0.7925 C   0  0  0  0  0  0  0  0  0  0  0  0
   -2.4739    2.3187   -0.3068 C   0  0  2  0  0  0  0  0  0  0  0  0
    0.8790   -0.0364   -1.3649 C   0  0  0  0  0  0  0  0  0  0  0  0
   -3.2522    1.1101    0.1652 C   0  0  0  0  0  0  0  0  0  0  0  0
    3.2492   -0.0405    0.5986 C   0  0  0  0  0  0  0  0  0  0  0  0
   -3.4625    0.0577   -0.7091 C   0  0  0  0  0  0  0  0  0  0  0  0
   -3.7372    1.0831    1.4613 C   0  0  0  0  0  0  0  0  0  0  0  0
    3.5102   -1.3149    0.1214 C   0  0  0  0  0  0  0  0  0  0  0  0
    4.2598    0.8967    0.7414 C   0  0  0  0  0  0  0  0  0  0  0  0
   -4.1801   -1.0563   -0.2736 C   0  0  0  0  0  0  0  0  0  0  0  0
   -4.4547   -0.0310    1.8967 C   0  0  0  0  0  0  0  0  0  0  0  0
   -4.6762   -1.1006    1.0292 C   0  0  0  0  0  0  0  0  0  0  0  0
    4.8170   -1.6613   -0.2222 C   0  0  0  0  0  0  0  0  0  0  0  0
    5.5665    0.5503    0.3976 C   0  0  0  0  0  0  0  0  0  0  0  0
    5.8451   -0.7287   -0.0842 C   0  0  0  0  0  0  0  0  0  0  0  0
   -4.4067   -2.1928   -1.2148 C   0  0  0  0  0  0  0  0  0  0  0  0
    8.1228   -0.0664   -0.2552 C   0  0  0  0  0  0  0  0  0  0  0  0
    1.5539    1.8327   -0.5478 H   0  0  0  0  0  0  0  0  0  0  0  0
    1.3218   -0.5525    1.3690 H   0  0  0  0  0  0  0  0  0  0  0  0
    1.8675    1.0466    1.8081 H   0  0  0  0  0  0  0  0  0  0  0  0
   -1.1975    1.2998   -1.6763 H   0  0  0  0  0  0  0  0  0  0  0  0
   -0.5630    2.8378   -1.1418 H   0  0  0  0  0  0  0  0  0  0  0  0
   -0.2356    1.9404    1.0664 H   0  0  0  0  0  0  0  0  0  0  0  0
   -2.3920    3.0579    0.5000 H   0  0  0  0  0  0  0  0  0  0  0  0
    1.8464   -0.4239   -1.6945 H   0  0  0  0  0  0  0  0  0  0  0  0
    0.2500   -0.8954   -1.1045 H   0  0  0  0  0  0  0  0  0  0  0  0
    0.4749    0.4354   -2.2653 H   0  0  0  0  0  0  0  0  0  0  0  0
   -3.0937    0.0929   -1.7302 H   0  0  0  0  0  0  0  0  0  0  0  0
   -3.5709    1.9096    2.1460 H   0  0  0  0  0  0  0  0  0  0  0  0
    2.7196   -2.0524    0.0173 H   0  0  0  0  0  0  0  0  0  0  0  0
    4.0509    1.8956    1.1138 H   0  0  0  0  0  0  0  0  0  0  0  0
   -2.6976    3.7099   -1.6600 H   0  0  0  0  0  0  0  0  0  0  0  0
   -4.8384   -0.0595    2.9130 H   0  0  0  0  0  0  0  0  0  0  0  0
    5.0281   -2.6596   -0.5954 H   0  0  0  0  0  0  0  0  0  0  0  0
    6.3165    1.3228    0.5287 H   0  0  0  0  0  0  0  0  0  0  0  0
   -4.4360   -3.1649   -0.7125 H   0  0  0  0  0  0  0  0  0  0  0  0
   -3.5891   -2.2503   -1.9434 H   0  0  0  0  0  0  0  0  0  0  0  0
   -5.7535   -2.6686    0.7196 H   0  0  0  0  0  0  0  0  0  0  0  0
   -5.7221   -2.7251   -2.5432 H   0  0  0  0  0  0  0  0  0  0  0  0
    8.2351    0.2206    0.7959 H   0  0  0  0  0  0  0  0  0  0  0  0
    9.0744   -0.5073   -0.5696 H   0  0  0  0  0  0  0  0  0  0  0  0
    7.9406    0.7971   -0.9039 H   0  0  0  0  0  0  0  0  0  0  0  0
  1  9  1  0  0  0  0
  1 39  1  0  0  0  0
  2 19  1  0  0  0  0
  2 45  1  0  0  0  0
  3 22  1  0  0  0  0
  3 24  1  0  0  0  0
  4 23  1  0  0  0  0
  4 46  1  0  0  0  0
  5  6  1  0  0  0  0
  5  8  1  0  0  0  0
  5 30  1  0  0  0  0
  6  7  1  0  0  0  0
  6 10  1  0  0  0  0
  6 25  1  0  0  0  0
  7 12  1  0  0  0  0
  7 26  1  0  0  0  0
  7 27  1  0  0  0  0
  8  9  1  0  0  0  0
  8 28  1  0  0  0  0
  8 29  1  0  0  0  0
  9 11  1  0  0  0  0
  9 31  1  0  0  0  0
 10 32  1  0  0  0  0
 10 33  1  0  0  0  0
 10 34  1  0  0  0  0
 11 13  2  0  0  0  0
 11 14  1  0  0  0  0
 12 15  2  0  0  0  0
 12 16  1  0  0  0  0
 13 17  1  0  0  0  0
 13 35  1  0  0  0  0
 14 18  2  0  0  0  0
 14 36  1  0  0  0  0
 15 20  1  0  0  0  0
 15 37  1  0  0  0  0
 16 21  2  0  0  0  0
 16 38  1  0  0  0  0
 17 19  2  0  0  0  0
 17 23  1  0  0  0  0
 18 19  1  0  0  0  0
 18 40  1  0  0  0  0
 20 22  2  0  0  0  0
 20 41  1  0  0  0  0
 21 22  1  0  0  0  0
 21 42  1  0  0  0  0
 23 43  1  0  0  0  0
 23 44  1  0  0  0  0
 24 47  1  0  0  0  0
 24 48  1  0  0  0  0
 24 49  1  0  0  0  0
M  END
> <PUBCHEM_COMPOUND_CID>
86805

> <PUBCHEM_CONFORMER_RMSD>
1

> <PUBCHEM_CONFORMER_DIVERSEORDER>
3
219
87
361
4
169
224
64
191
299
427
413
25
320
43
327
372
328
287
509
440
42
18
254
242
220
94
17
269
113
478
175
245
311
457
6
277
511
339
85
83
394
32
414
86
53
57
66
482
397
8
330
60
158
61
160
12
370
360
198
204
148
170
501
22
396
283
29
251
129
332
50
289
134
153
76
274
77
124
468
200
123
189
499
19
115
28
357
363
126
137
290
35
225
62
41
309
319
258
2
295
154
73
46
9
107
196
14
11
404
255
1
221
79
118
23
464
261
72
5
45
127
96
16
465
63
31
375
24
150
522

> <PUBCHEM_MMFF94_PARTIAL_CHARGES>
34
1 -0.68
11 -0.14
12 -0.14
13 -0.15
14 -0.15
15 -0.15
16 -0.15
17 -0.14
18 -0.15
19 0.08
2 -0.53
20 -0.15
21 -0.15
22 0.08
23 0.42
24 0.28
3 -0.36
30 0.36
35 0.15
36 0.15
37 0.15
38 0.15
39 0.4
4 -0.68
40 0.15
41 0.15
42 0.15
45 0.45
46 0.4
5 -0.9
6 0.27
7 0.14
8 0.27
9 0.42

> <PUBCHEM_EFFECTIVE_ROTOR_COUNT>
8

> <PUBCHEM_PHARMACOPHORE_FEATURES>
10
1 1 acceptor
1 1 donor
1 2 donor
1 3 acceptor
1 4 acceptor
1 4 donor
1 5 cation
1 5 donor
6 11 13 14 17 18 19 rings
6 12 15 16 20 21 22 rings

> <PUBCHEM_HEAVY_ATOM_COUNT>
24

> <PUBCHEM_ATOM_DEF_STEREO_COUNT>
0

> <PUBCHEM_ATOM_UDEF_STEREO_COUNT>
2

> <PUBCHEM_BOND_DEF_STEREO_COUNT>
0

> <PUBCHEM_BOND_UDEF_STEREO_COUNT>
0

> <PUBCHEM_ISOTOPIC_ATOM_COUNT>
0

> <PUBCHEM_COMPONENT_COUNT>
1

> <PUBCHEM_CACTVS_TAUTO_COUNT>
3

> <PUBCHEM_CONFORMER_ID>
0001531500000003

> <PUBCHEM_MMFF94_ENERGY>
67.3954

> <PUBCHEM_FEATURE_SELFOVERLAP>
50.747

> <PUBCHEM_SHAPE_FINGERPRINT>
11089746 13 7925625588711646938
11315181 36 18060416915591081433
11370993 144 17773605922887724825
11552529 35 17417236749594445191
12596602 18 17132113576138783826
12633257 1 16988010508898194643
13103583 49 17203337731899224619
13782708 43 18042122064866404506
14856354 85 17274829072790162629
14950920 106 16773515576896008267
15183329 4 18413384341879924042
15716309 27 18410859850048929706
15880784 105 18202281437339282297
17349148 13 17022913328268582472
17780758 139 17917435306860289721
17844677 252 18412547591882211696
18927931 339 18334298652004358837
21054139 6 17385726889926548954
21623969 137 17917998244161027862
2303208 19 18272654511561379060
23081809 10 13686003312189481536
23522609 53 18055945227729593240
23559900 14 18260540134906385045
2838139 119 11386371447875884190
328310 18 12973881490503081519
4073 2 18261676948577561560
4325135 7 18260832588119522276
444769 64 13973690499321161836
445580 167 17968105261371931148
484985 159 17775272869010820319
4938544 92 17988088781552921849
5104073 3 18340480059384432968
6431902 208 18261114079706740699
7288768 16 10663554750570923653
7495541 125 18202560688156228512
7970288 3 18189059866488881931

> <PUBCHEM_SHAPE_MULTIPOLES>
465.45
18.71
2.38
1.45
25.46
0.24
0.08
-8.83
0.63
-3.6
-0.79
-2.55
-0.18
0.2

> <PUBCHEM_SHAPE_SELFOVERLAP>
972.625

> <PUBCHEM_SHAPE_VOLUME>
265

> <PUBCHEM_COORDINATE_TYPE>
2
5
10

$$$$
