5327095
  -OEChem-10241303073D

 45 47  0     0  0  0  0  0  0999 V2000
   -3.8680   -2.2193    0.0781 Cl  0  0  0  0  0  0  0  0  0  0  0  0
    3.5474    0.2842   -0.7154 O   0  0  0  0  0  0  0  0  0  0  0  0
    0.8945   -4.8359   -0.2903 O   0  0  0  0  0  0  0  0  0  0  0  0
   -2.6662    3.4864   -0.0076 O   0  0  0  0  0  0  0  0  0  0  0  0
   -5.8239   -0.0433    0.0997 O   0  0  0  0  0  0  0  0  0  0  0  0
   -0.0474    2.9347   -0.0422 N   0  0  0  0  0  0  0  0  0  0  0  0
    1.2940    2.9247   -0.0012 N   0  0  0  0  0  0  0  0  0  0  0  0
    3.9564    2.1974    0.5520 N   0  0  0  0  0  0  0  0  0  0  0  0
    0.6671    0.7739   -0.0602 C   0  0  0  0  0  0  0  0  0  0  0  0
   -0.5373    1.6443   -0.0402 C   0  0  0  0  0  0  0  0  0  0  0  0
    1.7308    1.6158   -0.0457 C   0  0  0  0  0  0  0  0  0  0  0  0
    0.7260   -0.6860   -0.1208 C   0  0  0  0  0  0  0  0  0  0  0  0
   -1.8110    1.2400   -0.0055 C   0  0  0  0  0  0  0  0  0  0  0  0
    3.1468    1.2873   -0.1141 C   0  0  0  0  0  0  0  0  0  0  0  0
    0.7708   -1.3385   -1.3561 C   0  0  0  0  0  0  0  0  0  0  0  0
    0.7381   -1.4382    1.0575 C   0  0  0  0  0  0  0  0  0  0  0  0
   -2.1850   -0.1597    0.0175 C   0  0  0  0  0  0  0  0  0  0  0  0
   -2.8878    2.2809    0.0098 C   0  0  0  0  0  0  0  0  0  0  0  0
    0.8272   -2.7311   -1.4128 C   0  0  0  0  0  0  0  0  0  0  0  0
    0.7946   -2.8308    1.0009 C   0  0  0  0  0  0  0  0  0  0  0  0
    0.8392   -3.4774   -0.2344 C   0  0  0  0  0  0  0  0  0  0  0  0
   -3.4738   -0.5338    0.0510 C   0  0  0  0  0  0  0  0  0  0  0  0
   -4.2861    1.7723    0.0471 C   0  0  0  0  0  0  0  0  0  0  0  0
    5.3952    2.0818    0.6255 C   0  0  0  0  0  0  0  0  0  0  0  0
   -4.5367    0.4538    0.0654 C   0  0  0  0  0  0  0  0  0  0  0  0
    5.8914    0.8540   -0.1099 C   0  0  0  0  0  0  0  0  0  0  0  0
    0.9038   -5.5373    0.9522 C   0  0  0  0  0  0  0  0  0  0  0  0
   -0.6150    3.7583    0.0954 H   0  0  0  0  0  0  0  0  0  0  0  0
    1.8706    3.6989   -0.3011 H   0  0  0  0  0  0  0  0  0  0  0  0
    0.7617   -0.7717   -2.2842 H   0  0  0  0  0  0  0  0  0  0  0  0
    0.7039   -0.9486    2.0282 H   0  0  0  0  0  0  0  0  0  0  0  0
   -1.4937   -0.9722    0.0008 H   0  0  0  0  0  0  0  0  0  0  0  0
    3.5296    2.9892    1.0242 H   0  0  0  0  0  0  0  0  0  0  0  0
    0.8613   -3.2291   -2.3779 H   0  0  0  0  0  0  0  0  0  0  0  0
    0.8005   -3.3485    1.9540 H   0  0  0  0  0  0  0  0  0  0  0  0
   -5.0869    2.5035    0.0582 H   0  0  0  0  0  0  0  0  0  0  0  0
    5.6697    2.0405    1.6840 H   0  0  0  0  0  0  0  0  0  0  0  0
    5.8223    2.9934    0.1966 H   0  0  0  0  0  0  0  0  0  0  0  0
    5.5372   -0.0818    0.3345 H   0  0  0  0  0  0  0  0  0  0  0  0
    5.6937    0.8922   -1.1861 H   0  0  0  0  0  0  0  0  0  0  0  0
    6.9845    0.8217   -0.0183 H   0  0  0  0  0  0  0  0  0  0  0  0
   -5.7808   -1.0147    0.1082 H   0  0  0  0  0  0  0  0  0  0  0  0
    0.9501   -6.6063    0.7197 H   0  0  0  0  0  0  0  0  0  0  0  0
    1.7955   -5.2994    1.5419 H   0  0  0  0  0  0  0  0  0  0  0  0
   -0.0218   -5.3722    1.5141 H   0  0  0  0  0  0  0  0  0  0  0  0
  1 22  1  0  0  0  0
  2 14  2  0  0  0  0
  3 21  1  0  0  0  0
  3 27  1  0  0  0  0
  4 18  2  0  0  0  0
  5 25  1  0  0  0  0
  5 42  1  0  0  0  0
  6  7  1  0  0  0  0
  6 10  1  0  0  0  0
  6 28  1  0  0  0  0
  7 11  1  0  0  0  0
  7 29  1  0  0  0  0
  8 14  1  0  0  0  0
  8 24  1  0  0  0  0
  8 33  1  0  0  0  0
  9 10  1  0  0  0  0
  9 11  2  0  0  0  0
  9 12  1  0  0  0  0
 10 13  2  0  0  0  0
 11 14  1  0  0  0  0
 12 15  2  0  0  0  0
 12 16  1  0  0  0  0
 13 17  1  0  0  0  0
 13 18  1  0  0  0  0
 15 19  1  0  0  0  0
 15 30  1  0  0  0  0
 16 20  2  0  0  0  0
 16 31  1  0  0  0  0
 17 22  2  0  0  0  0
 17 32  1  0  0  0  0
 18 23  1  0  0  0  0
 19 21  2  0  0  0  0
 19 34  1  0  0  0  0
 20 21  1  0  0  0  0
 20 35  1  0  0  0  0
 22 25  1  0  0  0  0
 23 25  2  0  0  0  0
 23 36  1  0  0  0  0
 24 26  1  0  0  0  0
 24 37  1  0  0  0  0
 24 38  1  0  0  0  0
 26 39  1  0  0  0  0
 26 40  1  0  0  0  0
 26 41  1  0  0  0  0
 27 43  1  0  0  0  0
 27 44  1  0  0  0  0
 27 45  1  0  0  0  0
M  END
> <PUBCHEM_COMPOUND_CID>
5327095

> <PUBCHEM_CONFORMER_RMSD>
0.8

> <PUBCHEM_CONFORMER_DIVERSEORDER>
1
2

> <PUBCHEM_MMFF94_PARTIAL_CHARGES>
36
1 -0.14
10 0.1
11 0.11
12 0.03
13 0.01
14 0.62
15 -0.15
16 -0.15
17 -0.15
18 0.54
19 -0.15
2 -0.57
20 -0.15
21 0.08
22 0.14
23 -0.14
24 0.3
25 0.08
27 0.28
28 0.4
29 0.4
3 -0.36
30 0.15
31 0.15
32 0.15
33 0.37
34 0.15
35 0.15
36 0.15
4 -0.57
42 0.45
5 -0.53
6 -0.5
7 -0.5
8 -0.73
9 -0.03

> <PUBCHEM_EFFECTIVE_ROTOR_COUNT>
5.4

> <PUBCHEM_PHARMACOPHORE_FEATURES>
10
1 2 acceptor
1 3 acceptor
1 4 acceptor
1 5 donor
1 6 donor
1 7 donor
1 8 donor
5 6 7 9 10 11 rings
6 12 15 16 19 20 21 rings
6 13 17 18 22 23 25 rings

> <PUBCHEM_HEAVY_ATOM_COUNT>
27

> <PUBCHEM_ATOM_DEF_STEREO_COUNT>
0

> <PUBCHEM_ATOM_UDEF_STEREO_COUNT>
0

> <PUBCHEM_BOND_DEF_STEREO_COUNT>
1

> <PUBCHEM_BOND_UDEF_STEREO_COUNT>
0

> <PUBCHEM_ISOTOPIC_ATOM_COUNT>
0

> <PUBCHEM_COMPONENT_COUNT>
1

> <PUBCHEM_CACTVS_TAUTO_COUNT>
54

> <PUBCHEM_CONFORMER_ID>
005148F700000001

> <PUBCHEM_MMFF94_ENERGY>
124.6462

> <PUBCHEM_FEATURE_SELFOVERLAP>
52.425

> <PUBCHEM_SHAPE_FINGERPRINT>
10074138 170 17980172482711070650
10616163 171 18410576219172832965
1100329 8 17905885134430779803
11421498 54 17346610638165148529
11488393 25 17915760698938116662
11578080 2 17025140831362558781
12293681 4 17762613297480656254
12553582 1 17476371500119266175
12788726 201 17539422337394977638
12839892 36 18337373972984175672
13140716 1 18339921515940849528
138480 1 17978228253636787619
14223421 5 18338235951735893765
14790565 3 18410577314194905784
14863182 85 18335434464458473941
14866123 147 18266731575466848362
15042514 8 17977666738302650546
16728300 4 17751330998409490962
18681886 176 18262794206573231760
19591789 44 18411417319603060110
20028762 73 18200030797357106287
20197701 30 18341609343524920460
20567600 347 18334018276291479498
20600515 1 16975327306652432282
20775438 99 17468156021993045389
20905425 154 18197222446869601133
21033648 29 18129086974312613736
21133410 32 16378954609324961475
21421861 104 18263930943103737097
21796203 349 17043492672425381755
22956985 138 18045497513428243154
23184049 29 17833832664378467909
23366157 5 18045793290328966620
23559900 14 17835514925574452311
283562 15 18343308037408899760
3383291 50 18411133603339944530
34934 24 18341610400324525149
474229 33 18411136978113015904
5265222 85 18196663002575032852
59755656 215 18410857633540311261
59755656 520 18337385045842264422
6138700 20 18339930308155519102
6669772 16 18342740711342207166
7364860 26 18267867181297562127
79837 15 18339084920340745426
9981440 41 18335142007276891435

> <PUBCHEM_SHAPE_MULTIPOLES>
519.1
9.23
5.87
0.91
1.18
8.41
0.1
-7.14
-0.77
1.75
-0.84
0.38
0.65
0.29

> <PUBCHEM_SHAPE_SELFOVERLAP>
1122.303

> <PUBCHEM_SHAPE_VOLUME>
285.4

> <PUBCHEM_COORDINATE_TYPE>
2
5
10

$$$$
