92400
  -OEChem-10241303133D

 52 54  0     1  0  0  0  0  0999 V2000
    2.4258   -0.2034    1.4002 S   0  0  0  0  0  0  0  0  0  0  0  0
   -3.8210    0.8461    0.9207 S   0  0  0  0  0  0  0  0  0  0  0  0
   -1.6351    3.0671    1.7127 O   0  0  0  0  0  0  0  0  0  0  0  0
    0.2641    0.2985   -2.5747 O   0  0  0  0  0  0  0  0  0  0  0  0
   -0.1091   -0.4591   -0.4574 O   0  0  0  0  0  0  0  0  0  0  0  0
   -4.3165   -0.1619   -1.4591 O   0  0  0  0  0  0  0  0  0  0  0  0
    0.0770    2.1585    0.4529 N   0  0  0  0  0  0  0  0  0  0  0  0
    0.7026    1.7901   -0.8133 C   0  0  1  0  0  0  0  0  0  0  0  0
    2.3253    1.5700    0.9823 C   0  0  1  0  0  0  0  0  0  0  0  0
    2.2053    1.8009   -0.5278 C   0  0  0  0  0  0  0  0  0  0  0  0
    1.0539    2.2050    1.5359 C   0  0  0  0  0  0  0  0  0  0  0  0
   -1.2204    2.6083    0.6459 C   0  0  0  0  0  0  0  0  0  0  0  0
   -2.1433    2.5084   -0.5424 C   0  0  1  0  0  0  0  0  0  0  0  0
    0.2404    0.4250   -1.2253 C   0  0  0  0  0  0  0  0  0  0  0  0
   -3.5929    2.3413   -0.0926 C   0  0  0  0  0  0  0  0  0  0  0  0
   -1.9722    3.7797   -1.3655 C   0  0  0  0  0  0  0  0  0  0  0  0
    3.9467   -0.6654    0.5825 C   0  0  0  0  0  0  0  0  0  0  0  0
    5.1448   -0.0436    0.9345 C   0  0  0  0  0  0  0  0  0  0  0  0
    3.9358   -1.6481   -0.4075 C   0  0  0  0  0  0  0  0  0  0  0  0
    6.3316   -0.4041    0.2965 C   0  0  0  0  0  0  0  0  0  0  0  0
    5.1228   -2.0088   -1.0453 C   0  0  0  0  0  0  0  0  0  0  0  0
   -3.8681   -0.3810   -0.3405 C   0  0  0  0  0  0  0  0  0  0  0  0
    6.3206   -1.3867   -0.6933 C   0  0  0  0  0  0  0  0  0  0  0  0
   -3.3707   -1.7347    0.0139 C   0  0  0  0  0  0  0  0  0  0  0  0
   -2.8238   -2.5570   -0.9714 C   0  0  0  0  0  0  0  0  0  0  0  0
   -3.4497   -2.1841    1.3322 C   0  0  0  0  0  0  0  0  0  0  0  0
   -2.3563   -3.8283   -0.6386 C   0  0  0  0  0  0  0  0  0  0  0  0
   -2.9821   -3.4553    1.6649 C   0  0  0  0  0  0  0  0  0  0  0  0
   -2.4354   -4.2774    0.6795 C   0  0  0  0  0  0  0  0  0  0  0  0
    0.4480    2.5063   -1.5951 H   0  0  0  0  0  0  0  0  0  0  0  0
    3.2070    2.0668    1.3985 H   0  0  0  0  0  0  0  0  0  0  0  0
    2.5857    2.8085   -0.7446 H   0  0  0  0  0  0  0  0  0  0  0  0
    2.7749    1.1102   -1.1559 H   0  0  0  0  0  0  0  0  0  0  0  0
    0.6503    1.7356    2.4393 H   0  0  0  0  0  0  0  0  0  0  0  0
    1.2239    3.2654    1.7599 H   0  0  0  0  0  0  0  0  0  0  0  0
   -1.8907    1.6556   -1.1734 H   0  0  0  0  0  0  0  0  0  0  0  0
   -4.2699    2.3184   -0.9532 H   0  0  0  0  0  0  0  0  0  0  0  0
   -3.9073    3.1929    0.5223 H   0  0  0  0  0  0  0  0  0  0  0  0
   -2.5284    3.7022   -2.3061 H   0  0  0  0  0  0  0  0  0  0  0  0
   -0.9340    4.0120   -1.6099 H   0  0  0  0  0  0  0  0  0  0  0  0
   -2.3634    4.6494   -0.8237 H   0  0  0  0  0  0  0  0  0  0  0  0
   -0.0362   -0.5895   -2.8639 H   0  0  0  0  0  0  0  0  0  0  0  0
    5.1803    0.7177    1.7095 H   0  0  0  0  0  0  0  0  0  0  0  0
    3.0113   -2.1424   -0.6959 H   0  0  0  0  0  0  0  0  0  0  0  0
    7.2648    0.0786    0.5720 H   0  0  0  0  0  0  0  0  0  0  0  0
    5.1144   -2.7736   -1.8163 H   0  0  0  0  0  0  0  0  0  0  0  0
    7.2448   -1.6677   -1.1898 H   0  0  0  0  0  0  0  0  0  0  0  0
   -2.7490   -2.2209   -2.0023 H   0  0  0  0  0  0  0  0  0  0  0  0
   -3.8923   -1.5943    2.1288 H   0  0  0  0  0  0  0  0  0  0  0  0
   -1.9294   -4.4679   -1.4055 H   0  0  0  0  0  0  0  0  0  0  0  0
   -3.0491   -3.8084    2.6899 H   0  0  0  0  0  0  0  0  0  0  0  0
   -2.0723   -5.2677    0.9384 H   0  0  0  0  0  0  0  0  0  0  0  0
  1  9  1  0  0  0  0
  1 17  1  0  0  0  0
  2 15  1  0  0  0  0
  2 22  1  0  0  0  0
  3 12  2  0  0  0  0
  4 14  1  0  0  0  0
  4 42  1  0  0  0  0
  5 14  2  0  0  0  0
  6 22  2  0  0  0  0
  7  8  1  0  0  0  0
  7 11  1  0  0  0  0
  7 12  1  0  0  0  0
  8 10  1  0  0  0  0
  8 14  1  0  0  0  0
  8 30  1  0  0  0  0
  9 10  1  0  0  0  0
  9 11  1  0  0  0  0
  9 31  1  0  0  0  0
 10 32  1  0  0  0  0
 10 33  1  0  0  0  0
 11 34  1  0  0  0  0
 11 35  1  0  0  0  0
 12 13  1  0  0  0  0
 13 15  1  0  0  0  0
 13 16  1  0  0  0  0
 13 36  1  0  0  0  0
 15 37  1  0  0  0  0
 15 38  1  0  0  0  0
 16 39  1  0  0  0  0
 16 40  1  0  0  0  0
 16 41  1  0  0  0  0
 17 18  2  0  0  0  0
 17 19  1  0  0  0  0
 18 20  1  0  0  0  0
 18 43  1  0  0  0  0
 19 21  2  0  0  0  0
 19 44  1  0  0  0  0
 20 23  2  0  0  0  0
 20 45  1  0  0  0  0
 21 23  1  0  0  0  0
 21 46  1  0  0  0  0
 22 24  1  0  0  0  0
 23 47  1  0  0  0  0
 24 25  2  0  0  0  0
 24 26  1  0  0  0  0
 25 27  1  0  0  0  0
 25 48  1  0  0  0  0
 26 28  2  0  0  0  0
 26 49  1  0  0  0  0
 27 29  2  0  0  0  0
 27 50  1  0  0  0  0
 28 29  1  0  0  0  0
 28 51  1  0  0  0  0
 29 52  1  0  0  0  0
M  END
> <PUBCHEM_COMPOUND_CID>
92400

> <PUBCHEM_CONFORMER_RMSD>
1

> <PUBCHEM_CONFORMER_DIVERSEORDER>
2
35
64
30
45
22
43
25
16
14
24
12
38
58
8
61
49
53
44
7
65
40
36
63
33
9
59
60
20
6
28
54
48
52
31
10
57
13
37
62
17
11
29
21
51
1
3
50
34
56
42
46
41
47
4
27
15
18
39
26
32
19
5
23
55

> <PUBCHEM_MMFF94_PARTIAL_CHARGES>
38
1 -0.33
11 0.3
12 0.57
13 0.06
14 0.66
15 0.23
17 0.1
18 -0.15
19 -0.15
2 -0.37
20 -0.15
21 -0.15
22 0.62
23 -0.15
24 0.09
25 -0.15
26 -0.15
27 -0.15
28 -0.15
29 -0.15
3 -0.57
4 -0.65
42 0.5
43 0.15
44 0.15
45 0.15
46 0.15
47 0.15
48 0.15
49 0.15
5 -0.57
50 0.15
51 0.15
52 0.15
6 -0.57
7 -0.66
8 0.36
9 0.23

> <PUBCHEM_EFFECTIVE_ROTOR_COUNT>
10

> <PUBCHEM_PHARMACOPHORE_FEATURES>
8
1 16 hydrophobe
1 3 acceptor
1 4 acceptor
1 5 acceptor
3 4 5 14 anion
5 7 8 9 10 11 rings
6 17 18 19 20 21 23 rings
6 24 25 26 27 28 29 rings

> <PUBCHEM_HEAVY_ATOM_COUNT>
29

> <PUBCHEM_ATOM_DEF_STEREO_COUNT>
3

> <PUBCHEM_ATOM_UDEF_STEREO_COUNT>
0

> <PUBCHEM_BOND_DEF_STEREO_COUNT>
0

> <PUBCHEM_BOND_UDEF_STEREO_COUNT>
0

> <PUBCHEM_ISOTOPIC_ATOM_COUNT>
0

> <PUBCHEM_COMPONENT_COUNT>
1

> <PUBCHEM_CACTVS_TAUTO_COUNT>
1

> <PUBCHEM_CONFORMER_ID>
000168F000000002

> <PUBCHEM_MMFF94_ENERGY>
83.5783

> <PUBCHEM_FEATURE_SELFOVERLAP>
40.652

> <PUBCHEM_SHAPE_FINGERPRINT>
10462674 296 17625530573498088518
11014199 57 18192996151821839259
11135609 12 18189622803139903305
11421498 54 17684949276456550540
12633257 1 18131360717292964249
12712778 12 18409167710038449846
13402501 40 18201156559671747903
14020679 6 17487346940930713793
14114206 34 17822837775824054603
14251757 5 18409168779337470586
15484559 13 13272185364513110110
15927050 60 17909542858252596413
17627616 140 17975411313389368411
19315092 285 16125263428338366175
19611394 137 18201144504758546840
19958102 18 18263637360419195998
20775530 9 18043523026672825003
23559900 14 18337663221794130680
23569943 247 14619395096902693676
3383291 50 18410570713231293747
3737641 26 18195253445225042082
4058900 60 17619068326485194656
508706 21 18411696565075389551
5265222 85 18263645065533113197
56633871 153 18124603230746287611

> <PUBCHEM_SHAPE_MULTIPOLES>
576.05
11.49
5.14
1.67
17.48
1.86
0.13
7.25
0.17
-6.55
-0.36
-0.33
-0.18
1.4

> <PUBCHEM_SHAPE_SELFOVERLAP>
1194.884

> <PUBCHEM_SHAPE_VOLUME>
329.1

> <PUBCHEM_COORDINATE_TYPE>
2
5
10

$$$$
