194518
  -OEChem-10241303123D

 76 81  0     1  0  0  0  0  0999 V2000
   -1.4555   -2.9592   -1.4995 O   0  0  0  0  0  0  0  0  0  0  0  0
   -2.5255    1.7738    0.4136 O   0  0  0  0  0  0  0  0  0  0  0  0
    0.9718   -2.6797    0.9072 O   0  0  0  0  0  0  0  0  0  0  0  0
    2.4157   -1.9761   -1.2468 O   0  0  0  0  0  0  0  0  0  0  0  0
   -9.3374    2.4457   -1.2998 O   0  0  0  0  0  0  0  0  0  0  0  0
    2.2803    0.2358   -0.6234 O   0  0  0  0  0  0  0  0  0  0  0  0
    9.0547    0.4395    1.3993 O   0  0  0  0  0  0  0  0  0  0  0  0
    5.9098    3.1634   -0.6398 O   0  0  0  0  0  0  0  0  0  0  0  0
    7.2143    1.3802    0.2304 N   0  0  0  0  0  0  0  0  0  0  0  0
   -1.8972   -1.2581    0.2201 C   0  0  1  0  0  0  0  0  0  0  0  0
   -3.3091   -1.8304    0.4716 C   0  0  2  0  0  0  0  0  0  0  0  0
   -4.3235   -0.7786    0.9454 C   0  0  1  0  0  0  0  0  0  0  0  0
   -4.4444    0.3332   -0.1472 C   0  0  1  0  0  0  0  0  0  0  0  0
   -1.1547   -2.5680   -0.1632 C   0  0  1  0  0  0  0  0  0  0  0  0
   -2.0193   -0.1992   -0.8948 C   0  0  0  0  0  0  0  0  0  0  0  0
   -5.5488    1.4154    0.1942 C   0  0  2  0  0  0  0  0  0  0  0  0
   -3.0551    0.9014   -0.5746 C   0  0  2  0  0  0  0  0  0  0  0  0
   -3.0455   -3.0494    1.3515 C   0  0  0  0  0  0  0  0  0  0  0  0
   -1.7171   -3.6237    0.8162 C   0  0  0  0  0  0  0  0  0  0  0  0
   -5.6919   -1.4315    1.1964 C   0  0  0  0  0  0  0  0  0  0  0  0
   -1.2480   -0.6457    1.4921 C   0  0  0  0  0  0  0  0  0  0  0  0
   -6.8554    0.7017    0.5672 C   0  0  0  0  0  0  0  0  0  0  0  0
   -6.7454   -0.4059    1.5862 C   0  0  0  0  0  0  0  0  0  0  0  0
   -5.7665    2.2969   -1.0702 C   0  0  0  0  0  0  0  0  0  0  0  0
   -5.1735    2.3283    1.3834 C   0  0  0  0  0  0  0  0  0  0  0  0
    0.3402   -2.4506   -0.1233 C   0  0  0  0  0  0  0  0  0  0  0  0
   -7.0517    3.1082   -1.0322 C   0  0  0  0  0  0  0  0  0  0  0  0
   -8.0609    1.0297    0.0731 C   0  0  0  0  0  0  0  0  0  0  0  0
   -8.2335    2.1998   -0.8181 C   0  0  0  0  0  0  0  0  0  0  0  0
    1.0150   -2.0371   -1.4138 C   0  0  0  0  0  0  0  0  0  0  0  0
    2.9283   -0.7751   -0.8457 C   0  0  0  0  0  0  0  0  0  0  0  0
    4.4052   -0.8425   -0.7090 C   0  0  0  0  0  0  0  0  0  0  0  0
    5.0909    0.2867   -0.3104 C   0  0  0  0  0  0  0  0  0  0  0  0
    5.0459   -2.0331   -0.9838 C   0  0  0  0  0  0  0  0  0  0  0  0
    6.4781    0.2224   -0.1811 C   0  0  0  0  0  0  0  0  0  0  0  0
    6.4333   -2.0974   -0.8545 C   0  0  0  0  0  0  0  0  0  0  0  0
    7.1494   -0.9697   -0.4532 C   0  0  0  0  0  0  0  0  0  0  0  0
    8.3982    1.3598    0.9399 C   0  0  0  0  0  0  0  0  0  0  0  0
    6.8483    2.6870   -0.0223 C   0  0  0  0  0  0  0  0  0  0  0  0
    8.7998    2.7601    1.1381 C   0  0  0  0  0  0  0  0  0  0  0  0
    7.8808    3.5423    0.5809 C   0  0  0  0  0  0  0  0  0  0  0  0
   -3.6992   -2.2250   -0.4814 H   0  0  0  0  0  0  0  0  0  0  0  0
   -3.9865   -0.3369    1.8887 H   0  0  0  0  0  0  0  0  0  0  0  0
   -4.8134   -0.1922   -1.0444 H   0  0  0  0  0  0  0  0  0  0  0  0
   -2.3213   -0.6740   -1.8362 H   0  0  0  0  0  0  0  0  0  0  0  0
   -1.0422    0.2651   -1.0698 H   0  0  0  0  0  0  0  0  0  0  0  0
   -3.1827    1.5024   -1.4819 H   0  0  0  0  0  0  0  0  0  0  0  0
   -3.8501   -3.7886    1.2813 H   0  0  0  0  0  0  0  0  0  0  0  0
   -2.9451   -2.7687    2.4060 H   0  0  0  0  0  0  0  0  0  0  0  0
   -1.0543   -3.8304    1.6631 H   0  0  0  0  0  0  0  0  0  0  0  0
   -1.9060   -4.5788    0.3124 H   0  0  0  0  0  0  0  0  0  0  0  0
   -6.0218   -1.9708    0.2987 H   0  0  0  0  0  0  0  0  0  0  0  0
   -5.6125   -2.1737    1.9993 H   0  0  0  0  0  0  0  0  0  0  0  0
   -1.8841    0.0908    1.9864 H   0  0  0  0  0  0  0  0  0  0  0  0
   -0.3078   -0.1408    1.2417 H   0  0  0  0  0  0  0  0  0  0  0  0
   -1.0174   -1.3989    2.2525 H   0  0  0  0  0  0  0  0  0  0  0  0
   -7.7046   -0.9209    1.7205 H   0  0  0  0  0  0  0  0  0  0  0  0
   -6.4925    0.0285    2.5612 H   0  0  0  0  0  0  0  0  0  0  0  0
   -4.9231    2.9832   -1.2129 H   0  0  0  0  0  0  0  0  0  0  0  0
   -5.7985    1.6559   -1.9625 H   0  0  0  0  0  0  0  0  0  0  0  0
   -4.7709    1.7625    2.2293 H   0  0  0  0  0  0  0  0  0  0  0  0
   -6.0444    2.8811    1.7567 H   0  0  0  0  0  0  0  0  0  0  0  0
   -4.4322    3.0827    1.1022 H   0  0  0  0  0  0  0  0  0  0  0  0
   -1.1541   -3.8751   -1.6266 H   0  0  0  0  0  0  0  0  0  0  0  0
   -7.0359    3.8604   -0.2373 H   0  0  0  0  0  0  0  0  0  0  0  0
   -7.1790    3.6254   -1.9896 H   0  0  0  0  0  0  0  0  0  0  0  0
   -1.6912    2.1378    0.0723 H   0  0  0  0  0  0  0  0  0  0  0  0
   -8.9613    0.4938    0.3538 H   0  0  0  0  0  0  0  0  0  0  0  0
    0.6106   -1.0916   -1.7836 H   0  0  0  0  0  0  0  0  0  0  0  0
    0.8389   -2.8037   -2.1738 H   0  0  0  0  0  0  0  0  0  0  0  0
    4.5499    1.1974   -0.0751 H   0  0  0  0  0  0  0  0  0  0  0  0
    4.5280   -2.9329   -1.2996 H   0  0  0  0  0  0  0  0  0  0  0  0
    6.9569   -3.0239   -1.0725 H   0  0  0  0  0  0  0  0  0  0  0  0
    8.2303   -1.0482   -0.3902 H   0  0  0  0  0  0  0  0  0  0  0  0
    9.6887    3.0716    1.6606 H   0  0  0  0  0  0  0  0  0  0  0  0
    7.8744    4.6189    0.5516 H   0  0  0  0  0  0  0  0  0  0  0  0
  1 14  1  0  0  0  0
  1 64  1  0  0  0  0
  2 17  1  0  0  0  0
  2 67  1  0  0  0  0
  3 26  2  0  0  0  0
  4 30  1  0  0  0  0
  4 31  1  0  0  0  0
  5 29  2  0  0  0  0
  6 31  2  0  0  0  0
  7 38  2  0  0  0  0
  8 39  2  0  0  0  0
  9 35  1  0  0  0  0
  9 38  1  0  0  0  0
  9 39  1  0  0  0  0
 10 11  1  0  0  0  0
 10 14  1  0  0  0  0
 10 15  1  0  0  0  0
 10 21  1  0  0  0  0
 11 12  1  0  0  0  0
 11 18  1  0  0  0  0
 11 42  1  0  0  0  0
 12 13  1  0  0  0  0
 12 20  1  0  0  0  0
 12 43  1  0  0  0  0
 13 16  1  0  0  0  0
 13 17  1  0  0  0  0
 13 44  1  0  0  0  0
 14 19  1  0  0  0  0
 14 26  1  0  0  0  0
 15 17  1  0  0  0  0
 15 45  1  0  0  0  0
 15 46  1  0  0  0  0
 16 22  1  0  0  0  0
 16 24  1  0  0  0  0
 16 25  1  0  0  0  0
 17 47  1  0  0  0  0
 18 19  1  0  0  0  0
 18 48  1  0  0  0  0
 18 49  1  0  0  0  0
 19 50  1  0  0  0  0
 19 51  1  0  0  0  0
 20 23  1  0  0  0  0
 20 52  1  0  0  0  0
 20 53  1  0  0  0  0
 21 54  1  0  0  0  0
 21 55  1  0  0  0  0
 21 56  1  0  0  0  0
 22 23  1  0  0  0  0
 22 28  2  0  0  0  0
 23 57  1  0  0  0  0
 23 58  1  0  0  0  0
 24 27  1  0  0  0  0
 24 59  1  0  0  0  0
 24 60  1  0  0  0  0
 25 61  1  0  0  0  0
 25 62  1  0  0  0  0
 25 63  1  0  0  0  0
 26 30  1  0  0  0  0
 27 29  1  0  0  0  0
 27 65  1  0  0  0  0
 27 66  1  0  0  0  0
 28 29  1  0  0  0  0
 28 68  1  0  0  0  0
 30 69  1  0  0  0  0
 30 70  1  0  0  0  0
 31 32  1  0  0  0  0
 32 33  2  0  0  0  0
 32 34  1  0  0  0  0
 33 35  1  0  0  0  0
 33 71  1  0  0  0  0
 34 36  2  0  0  0  0
 34 72  1  0  0  0  0
 35 37  2  0  0  0  0
 36 37  1  0  0  0  0
 36 73  1  0  0  0  0
 37 74  1  0  0  0  0
 38 40  1  0  0  0  0
 39 41  1  0  0  0  0
 40 41  2  0  0  0  0
 40 75  1  0  0  0  0
 41 76  1  0  0  0  0
M  END
> <PUBCHEM_COMPOUND_CID>
194518

> <PUBCHEM_CONFORMER_RMSD>
1

> <PUBCHEM_CONFORMER_DIVERSEORDER>
9
42
96
190
25
213
46
231
61
266
139
164
162
258
130
163
36
116
142
175
166
219
95
279
236
91
80
47
226
32
244
123
105
288
35
52
276
23
51
225
289
195
168
191
134
259
58
260
119
271
14
115
5
10
223
257
53
189
170
293
84
307
290
248
280
13
50
235
169
272
204
118
76
174
55
240
45
273
97
79
230
24
187
129
16
147
106
214
283
284
237
221
6
87
113
210
22
37
18
282
200
263
173
138
64
297
126
243
160
70
136
60
287
15
49
26
27
3
262
81
229
197
254
90
43
141
83
125
209
302
156
299
269
7
238
154
73
295
224
286
56
69
202
98
182
59
41
124
172
11
285
203
277
247
120
193
101
112
39
250
308
268
63
78
184
8
212
228
255
89
292
246
198
21
270
251
151
161
102
303
265
245
75
28
94
171
44
165
29
217
132
232
275
54
194
100
211
108
186
188
85
201
48
196
181
103
74
274
183
155
77
222
88
17
301
177
261
127
1
12
291
220
298
167
256
296
57
233
66
122
241
306
178
110
215
252
38
185
300
253
33
206
40
234
109
249
82
267
192
305
264
99
146
117
150
148
227
93
19
72
304
144
180
205
152
71
149
179
239
208
107
218
216
153
278
135
30
133
114
157
67
128
159
2
68
92
137
20
176
104
86
65
62
143
242
199
31
131
4
281
145
207
158
111
34
121
294
140

> <PUBCHEM_MMFF94_PARTIAL_CHARGES>
39
1 -0.68
14 0.34
16 0.14
17 0.28
2 -0.68
22 -0.28
23 0.14
26 0.45
27 0.06
28 -0.14
29 0.49
3 -0.57
30 0.34
31 0.63
32 0.09
33 -0.15
34 -0.15
35 0.12
36 -0.15
37 -0.15
38 0.62
39 0.62
4 -0.43
40 -0.14
41 -0.14
5 -0.57
6 -0.57
64 0.4
67 0.4
68 0.15
7 -0.57
71 0.15
72 0.15
73 0.15
74 0.15
75 0.15
76 0.15
8 -0.57
9 -0.24

> <PUBCHEM_EFFECTIVE_ROTOR_COUNT>
8

> <PUBCHEM_PHARMACOPHORE_FEATURES>
15
1 1 acceptor
1 1 donor
1 2 acceptor
1 2 donor
1 3 acceptor
1 5 acceptor
1 6 acceptor
1 7 acceptor
1 8 acceptor
5 10 11 14 18 19 rings
5 9 38 39 40 41 rings
6 10 11 12 13 15 17 rings
6 12 13 16 20 22 23 rings
6 16 22 24 27 28 29 rings
6 32 33 34 35 36 37 rings

> <PUBCHEM_HEAVY_ATOM_COUNT>
41

> <PUBCHEM_ATOM_DEF_STEREO_COUNT>
7

> <PUBCHEM_ATOM_UDEF_STEREO_COUNT>
0

> <PUBCHEM_BOND_DEF_STEREO_COUNT>
0

> <PUBCHEM_BOND_UDEF_STEREO_COUNT>
0

> <PUBCHEM_ISOTOPIC_ATOM_COUNT>
0

> <PUBCHEM_COMPONENT_COUNT>
1

> <PUBCHEM_CACTVS_TAUTO_COUNT>
10

> <PUBCHEM_CONFORMER_ID>
0002F7D600000009

> <PUBCHEM_MMFF94_ENERGY>
137.2412

> <PUBCHEM_FEATURE_SELFOVERLAP>
76.222

> <PUBCHEM_SHAPE_FINGERPRINT>
10 15 18334861658156507714
10280341 67 17968933086106245397
10533779 1 18131060581163842336
10554248 39 16845025520039424398
10740516 88 9655289375996126317
10835480 77 18342459249054939816
10930396 42 17749102305614926453
11408170 108 8574414428279264569
11409948 8 18335150813130596499
11411753 3 18266200416281752918
11621639 254 18130780201498049239
11693224 71 18409440371531291934
12013929 2 18263088735079103318
12838862 33 18187076231489455077
12925494 130 18341610486266309376
13782708 43 7853580076348534158
13811026 1 18409731767845084812
13911987 19 16917358047396955350
14190465 44 18187937221696997558
15145343 4 18410855451818185405
15274700 208 16629949050140365648
15289351 153 18267867173098602434
15320295 198 18342742970300072648
15840311 113 18412546484085845062
16758388 162 18262792953418253298
17686467 74 18335989770304246267
19302320 297 18334296518123700092
19315958 150 18413109463951407004
2026 5 8502378823302728513
21033648 29 18260831492402098142
21585482 111 18340487876821607484
21814621 53 18187656803836844642
23516275 100 18411980226223031716
23569943 247 9941881437589872876
2851757 15 18410857650735900470
3918712 181 18409445847999690513
393628 179 18334852793444573709
397638 26 18187080655058044732
4112364 45 18188197716122886482
4258327 124 17131830984164419861
4403749 210 18271525406908164903
4756326 101 17968928705392240157
4874694 18 18272647966237195216
49967989 163 13758064238388809013
504843 32 17417812911115871950
54039377 194 11819266755712510944
57307002 19 18260829285374197869
6289498 60 18334015016839109472
99344 41 18408040732052455376

> <PUBCHEM_SHAPE_MULTIPOLES>
791.83
30.52
4.41
1.39
27.32
0.43
0.12
31.96
2.93
1.1
-0.03
-0.68
-0.15
4.61

> <PUBCHEM_SHAPE_SELFOVERLAP>
1743.327

> <PUBCHEM_SHAPE_VOLUME>
418.9

> <PUBCHEM_COORDINATE_TYPE>
2
5
10

$$$$
