151075
  -OEChem-10241302533D

 33 34  0     0  0  0  0  0  0999 V2000
   -1.7282   -1.9653   -1.4652 O   0  0  0  0  0  0  0  0  0  0  0  0
    2.9732    1.9490    0.8273 O   0  0  0  0  0  0  0  0  0  0  0  0
    0.7975    0.2717   -1.7653 N   0  0  0  0  0  0  0  0  0  0  0  0
    4.6941    2.1471   -0.6833 N   0  0  0  0  0  0  0  0  0  0  0  0
    2.2761   -0.6390   -0.0629 C   0  0  0  0  0  0  0  0  0  0  0  0
    1.0017   -0.5335   -0.6201 C   0  0  0  0  0  0  0  0  0  0  0  0
   -0.0348   -1.2222   -0.0332 C   0  0  0  0  0  0  0  0  0  0  0  0
    3.4422    0.0851   -0.6538 C   0  0  0  0  0  0  0  0  0  0  0  0
    2.4801   -1.4313    1.0669 C   0  0  0  0  0  0  0  0  0  0  0  0
    0.1350   -2.0120    1.0827 C   0  0  0  0  0  0  0  0  0  0  0  0
   -1.4133   -1.1319   -0.6027 C   0  0  0  0  0  0  0  0  0  0  0  0
    1.4096   -2.1178    1.6397 C   0  0  0  0  0  0  0  0  0  0  0  0
   -2.3665   -0.1184   -0.1800 C   0  0  0  0  0  0  0  0  0  0  0  0
    3.6521    1.4754   -0.0796 C   0  0  0  0  0  0  0  0  0  0  0  0
   -2.0063    0.8166    0.7905 C   0  0  0  0  0  0  0  0  0  0  0  0
   -3.6411   -0.0808   -0.7455 C   0  0  0  0  0  0  0  0  0  0  0  0
   -2.9207    1.7889    1.1954 C   0  0  0  0  0  0  0  0  0  0  0  0
   -4.5554    0.8918   -0.3407 C   0  0  0  0  0  0  0  0  0  0  0  0
   -4.1952    1.8267    0.6298 C   0  0  0  0  0  0  0  0  0  0  0  0
    4.3594   -0.4870   -0.4545 H   0  0  0  0  0  0  0  0  0  0  0  0
    3.3844    0.1381   -1.7466 H   0  0  0  0  0  0  0  0  0  0  0  0
    3.4666   -1.5215    1.5141 H   0  0  0  0  0  0  0  0  0  0  0  0
   -0.6945   -2.5489    1.5331 H   0  0  0  0  0  0  0  0  0  0  0  0
    1.5680   -2.7340    2.5199 H   0  0  0  0  0  0  0  0  0  0  0  0
   -0.1251    0.3449   -2.1727 H   0  0  0  0  0  0  0  0  0  0  0  0
    1.5274    0.8699   -2.1240 H   0  0  0  0  0  0  0  0  0  0  0  0
   -1.0255    0.8244    1.2561 H   0  0  0  0  0  0  0  0  0  0  0  0
   -3.9467   -0.7973   -1.5033 H   0  0  0  0  0  0  0  0  0  0  0  0
   -2.6407    2.5173    1.9509 H   0  0  0  0  0  0  0  0  0  0  0  0
   -5.5478    0.9214   -0.7809 H   0  0  0  0  0  0  0  0  0  0  0  0
   -4.9070    2.5840    0.9450 H   0  0  0  0  0  0  0  0  0  0  0  0
    5.2451    1.7353   -1.4296 H   0  0  0  0  0  0  0  0  0  0  0  0
    4.9456    3.0868   -0.3954 H   0  0  0  0  0  0  0  0  0  0  0  0
  1 11  2  0  0  0  0
  2 14  2  0  0  0  0
  3  6  1  0  0  0  0
  3 25  1  0  0  0  0
  3 26  1  0  0  0  0
  4 14  1  0  0  0  0
  4 32  1  0  0  0  0
  4 33  1  0  0  0  0
  5  6  2  0  0  0  0
  5  8  1  0  0  0  0
  5  9  1  0  0  0  0
  6  7  1  0  0  0  0
  7 10  2  0  0  0  0
  7 11  1  0  0  0  0
  8 14  1  0  0  0  0
  8 20  1  0  0  0  0
  8 21  1  0  0  0  0
  9 12  2  0  0  0  0
  9 22  1  0  0  0  0
 10 12  1  0  0  0  0
 10 23  1  0  0  0  0
 11 13  1  0  0  0  0
 12 24  1  0  0  0  0
 13 15  2  0  0  0  0
 13 16  1  0  0  0  0
 15 17  1  0  0  0  0
 15 27  1  0  0  0  0
 16 18  2  0  0  0  0
 16 28  1  0  0  0  0
 17 19  2  0  0  0  0
 17 29  1  0  0  0  0
 18 19  1  0  0  0  0
 18 30  1  0  0  0  0
 19 31  1  0  0  0  0
M  END
> <PUBCHEM_COMPOUND_CID>
151075

> <PUBCHEM_CONFORMER_RMSD>
0.6

> <PUBCHEM_CONFORMER_DIVERSEORDER>
1
14
11
16
4
9
7
15
3
12
8
10
2
5
13
6

> <PUBCHEM_MMFF94_PARTIAL_CHARGES>
31
1 -0.57
10 -0.15
11 0.4
12 -0.15
13 0.09
14 0.57
15 -0.15
16 -0.15
17 -0.15
18 -0.15
19 -0.15
2 -0.57
22 0.15
23 0.15
24 0.15
25 0.4
26 0.4
27 0.15
28 0.15
29 0.15
3 -0.9
30 0.15
31 0.15
32 0.37
33 0.37
4 -0.8
5 -0.14
6 0.1
7 0.09
8 0.2
9 -0.15

> <PUBCHEM_EFFECTIVE_ROTOR_COUNT>
4

> <PUBCHEM_PHARMACOPHORE_FEATURES>
7
1 1 acceptor
1 2 acceptor
1 3 cation
1 3 donor
1 4 donor
6 13 15 16 17 18 19 rings
6 5 6 7 9 10 12 rings

> <PUBCHEM_HEAVY_ATOM_COUNT>
19

> <PUBCHEM_ATOM_DEF_STEREO_COUNT>
0

> <PUBCHEM_ATOM_UDEF_STEREO_COUNT>
0

> <PUBCHEM_BOND_DEF_STEREO_COUNT>
0

> <PUBCHEM_BOND_UDEF_STEREO_COUNT>
0

> <PUBCHEM_ISOTOPIC_ATOM_COUNT>
0

> <PUBCHEM_COMPONENT_COUNT>
1

> <PUBCHEM_CACTVS_TAUTO_COUNT>
8

> <PUBCHEM_CONFORMER_ID>
00024E2300000001

> <PUBCHEM_MMFF94_ENERGY>
72.1533

> <PUBCHEM_FEATURE_SELFOVERLAP>
35.52

> <PUBCHEM_SHAPE_FINGERPRINT>
10382601 240 17749384850211975840
10498660 4 17917709046606467105
10618630 7 8430314627846701657
11640471 11 18410573976761970175
11769659 78 8574714593871511174
12236239 1 18337946780056566779
12390115 104 17824843345505259484
12491281 212 18341615957690251210
12633257 1 17896301667225657496
12788726 201 17248947862153208418
13140716 1 17748820826506902650
13464514 151 18411707603826687714
13583140 156 18113621158172649609
14178342 30 17604152635178563146
14251764 38 17912073164909679760
14739800 52 18058707205264455320
14787075 74 18048035465479871483
15209294 21 18334572481997389372
15342168 16 17895198843476249100
15534591 1 18339363062406892870
15775835 57 18410295778845384289
15848702 105 18273213122927840657
1813 80 17759517773154378242
18186145 218 18333734589459339574
193927 3 9511464462957643533
204376 136 17895199943093293492
20510252 161 17538850591316807978
20715895 44 17472972901531818965
21041028 32 17610891297612140282
21503847 285 18338240349644988380
21524375 3 18410576171427169262
21864079 5 18199475372286568593
22854114 111 18260546684403612968
23419403 2 14950351901740121086
23557571 272 17915748780181882351
23559900 14 17488181491503944558
2637199 183 18270692973520681698
2748010 2 16879608415906765678
283562 15 17609498585625915298
2838139 119 18059852913524030176
3472631 163 18129948862969939781
4028521 119 18272090525756227661
4340502 62 17821734927481177379
474 4 18187928421230133244
495365 180 16734092437348128387
5104073 3 17895197650008162593
5895379 119 17488186976504248792
6034566 193 17243596457435287468
633830 44 18410295782982265278
7615 1 18196345126784987815
77492 1 18337660911418067459
9981440 41 18052245495734351760

> <PUBCHEM_SHAPE_MULTIPOLES>
369.31
8.23
2.44
1.38
1.77
0.19
0
6.33
0.17
-1.47
-0.64
0.02
-0.33
-1.49

> <PUBCHEM_SHAPE_SELFOVERLAP>
799.888

> <PUBCHEM_SHAPE_VOLUME>
201.2

> <PUBCHEM_COORDINATE_TYPE>
2
5
10

$$$$
