134715
  -OEChem-10241302483D

 51 51  0     1  0  0  0  0  0999 V2000
    0.5083    0.2228    3.9442 O   0  0  0  0  0  0  0  0  0  0  0  0
    1.6546    4.5080   -0.8343 O   0  0  0  0  0  0  0  0  0  0  0  0
    2.1198   -0.1440    2.3852 O   0  0  0  0  0  0  0  0  0  0  0  0
    2.7386    2.9980    0.4724 O   0  0  0  0  0  0  0  0  0  0  0  0
   -4.3437    1.3610   -2.8628 O   0  0  0  0  0  0  0  0  0  0  0  0
   -4.5963   -1.9844    2.3191 O   0  0  0  0  0  0  0  0  0  0  0  0
   -3.0174   -0.4797   -2.7395 O   0  0  0  0  0  0  0  0  0  0  0  0
   -3.4697   -2.6751    0.4708 O   0  0  0  0  0  0  0  0  0  0  0  0
    0.6683    1.3019    0.5561 N   0  0  0  0  0  0  0  0  0  0  0  0
   -2.7233   -0.0798   -0.0369 N   0  0  0  0  0  0  0  0  0  0  0  0
    5.4166   -2.7460   -0.7681 N   0  0  0  0  0  0  0  0  0  0  0  0
   -0.2667    0.2612    0.1110 C   0  0  1  0  0  0  0  0  0  0  0  0
   -1.6512    0.9113   -0.0587 C   0  0  0  0  0  0  0  0  0  0  0  0
    0.2370   -0.3793   -1.2003 C   0  0  0  0  0  0  0  0  0  0  0  0
    0.4803    1.5754    1.9784 C   0  0  0  0  0  0  0  0  0  0  0  0
    0.4838    2.5177   -0.2318 C   0  0  0  0  0  0  0  0  0  0  0  0
    1.6075   -1.0055   -1.0858 C   0  0  0  0  0  0  0  0  0  0  0  0
   -3.9178    0.4415   -0.7023 C   0  0  0  0  0  0  0  0  0  0  0  0
   -3.0354   -0.4686    1.3387 C   0  0  0  0  0  0  0  0  0  0  0  0
    1.7338   -2.3442   -0.7147 C   0  0  0  0  0  0  0  0  0  0  0  0
    2.7463   -0.2448   -1.3513 C   0  0  0  0  0  0  0  0  0  0  0  0
    1.1390    0.4798    2.7702 C   0  0  0  0  0  0  0  0  0  0  0  0
    1.7446    3.3340   -0.1589 C   0  0  0  0  0  0  0  0  0  0  0  0
   -3.7115    0.3660   -2.1899 C   0  0  0  0  0  0  0  0  0  0  0  0
   -3.6934   -1.8206    1.3189 C   0  0  0  0  0  0  0  0  0  0  0  0
    2.9989   -2.9223   -0.6092 C   0  0  0  0  0  0  0  0  0  0  0  0
    4.0113   -0.8228   -1.2456 C   0  0  0  0  0  0  0  0  0  0  0  0
    4.1376   -2.1616   -0.8747 C   0  0  0  0  0  0  0  0  0  0  0  0
   -0.2959   -0.5437    0.8552 H   0  0  0  0  0  0  0  0  0  0  0  0
   -1.8868    1.6715    0.6956 H   0  0  0  0  0  0  0  0  0  0  0  0
   -1.6704    1.4367   -1.0227 H   0  0  0  0  0  0  0  0  0  0  0  0
    0.2373    0.3297   -2.0372 H   0  0  0  0  0  0  0  0  0  0  0  0
   -0.4714   -1.1608   -1.5078 H   0  0  0  0  0  0  0  0  0  0  0  0
    0.9801    2.4993    2.2928 H   0  0  0  0  0  0  0  0  0  0  0  0
   -0.5677    1.6646    2.2805 H   0  0  0  0  0  0  0  0  0  0  0  0
    0.3526    2.3195   -1.3006 H   0  0  0  0  0  0  0  0  0  0  0  0
   -0.3397    3.1476    0.1258 H   0  0  0  0  0  0  0  0  0  0  0  0
   -4.1347    1.4721   -0.3962 H   0  0  0  0  0  0  0  0  0  0  0  0
   -4.8055   -0.1677   -0.4945 H   0  0  0  0  0  0  0  0  0  0  0  0
   -3.6884    0.2665    1.8249 H   0  0  0  0  0  0  0  0  0  0  0  0
   -2.1437   -0.5837    1.9641 H   0  0  0  0  0  0  0  0  0  0  0  0
    0.8542   -2.9460   -0.5025 H   0  0  0  0  0  0  0  0  0  0  0  0
    2.6645    0.7950   -1.6540 H   0  0  0  0  0  0  0  0  0  0  0  0
    3.0842   -3.9662   -0.3184 H   0  0  0  0  0  0  0  0  0  0  0  0
    4.8908   -0.2201   -1.4575 H   0  0  0  0  0  0  0  0  0  0  0  0
    0.9388   -0.5070    4.4385 H   0  0  0  0  0  0  0  0  0  0  0  0
    2.4781    5.0360   -0.7615 H   0  0  0  0  0  0  0  0  0  0  0  0
    5.5089   -3.7164   -0.4986 H   0  0  0  0  0  0  0  0  0  0  0  0
    6.2426   -2.1949   -0.9598 H   0  0  0  0  0  0  0  0  0  0  0  0
   -4.1832    1.3082   -3.8291 H   0  0  0  0  0  0  0  0  0  0  0  0
   -5.0294   -2.8637    2.2804 H   0  0  0  0  0  0  0  0  0  0  0  0
  1 22  1  0  0  0  0
  1 46  1  0  0  0  0
  2 23  1  0  0  0  0
  2 47  1  0  0  0  0
  3 22  2  0  0  0  0
  4 23  2  0  0  0  0
  5 24  1  0  0  0  0
  5 50  1  0  0  0  0
  6 25  1  0  0  0  0
  6 51  1  0  0  0  0
  7 24  2  0  0  0  0
  8 25  2  0  0  0  0
  9 12  1  0  0  0  0
  9 15  1  0  0  0  0
  9 16  1  0  0  0  0
 10 13  1  0  0  0  0
 10 18  1  0  0  0  0
 10 19  1  0  0  0  0
 11 28  1  0  0  0  0
 11 48  1  0  0  0  0
 11 49  1  0  0  0  0
 12 13  1  0  0  0  0
 12 14  1  0  0  0  0
 12 29  1  0  0  0  0
 13 30  1  0  0  0  0
 13 31  1  0  0  0  0
 14 17  1  0  0  0  0
 14 32  1  0  0  0  0
 14 33  1  0  0  0  0
 15 22  1  0  0  0  0
 15 34  1  0  0  0  0
 15 35  1  0  0  0  0
 16 23  1  0  0  0  0
 16 36  1  0  0  0  0
 16 37  1  0  0  0  0
 17 20  2  0  0  0  0
 17 21  1  0  0  0  0
 18 24  1  0  0  0  0
 18 38  1  0  0  0  0
 18 39  1  0  0  0  0
 19 25  1  0  0  0  0
 19 40  1  0  0  0  0
 19 41  1  0  0  0  0
 20 26  1  0  0  0  0
 20 42  1  0  0  0  0
 21 27  2  0  0  0  0
 21 43  1  0  0  0  0
 26 28  2  0  0  0  0
 26 44  1  0  0  0  0
 27 28  1  0  0  0  0
 27 45  1  0  0  0  0
M  END
> <PUBCHEM_COMPOUND_CID>
134715

> <PUBCHEM_CONFORMER_RMSD>
1.2

> <PUBCHEM_CONFORMER_DIVERSEORDER>
1
2
6
3
5
4

> <PUBCHEM_MMFF94_PARTIAL_CHARGES>
38
1 -0.65
10 -0.81
11 -0.9
12 0.27
13 0.27
14 0.14
15 0.33
16 0.33
17 -0.14
18 0.33
19 0.33
2 -0.65
20 -0.15
21 -0.15
22 0.66
23 0.66
24 0.66
25 0.66
26 -0.15
27 -0.15
28 0.1
3 -0.57
4 -0.57
42 0.15
43 0.15
44 0.15
45 0.15
46 0.5
47 0.5
48 0.4
49 0.4
5 -0.65
50 0.5
51 0.5
6 -0.65
7 -0.57
8 -0.57
9 -0.81

> <PUBCHEM_EFFECTIVE_ROTOR_COUNT>
13

> <PUBCHEM_PHARMACOPHORE_FEATURES>
17
1 1 acceptor
1 10 cation
1 11 cation
1 11 donor
1 2 acceptor
1 3 acceptor
1 4 acceptor
1 5 acceptor
1 6 acceptor
1 7 acceptor
1 8 acceptor
1 9 cation
3 1 3 22 anion
3 2 4 23 anion
3 5 7 24 anion
3 6 8 25 anion
6 17 20 21 26 27 28 rings

> <PUBCHEM_HEAVY_ATOM_COUNT>
28

> <PUBCHEM_ATOM_DEF_STEREO_COUNT>
0

> <PUBCHEM_ATOM_UDEF_STEREO_COUNT>
1

> <PUBCHEM_BOND_DEF_STEREO_COUNT>
0

> <PUBCHEM_BOND_UDEF_STEREO_COUNT>
0

> <PUBCHEM_ISOTOPIC_ATOM_COUNT>
0

> <PUBCHEM_COMPONENT_COUNT>
1

> <PUBCHEM_CACTVS_TAUTO_COUNT>
1

> <PUBCHEM_CONFORMER_ID>
00020E3B00000001

> <PUBCHEM_MMFF94_ENERGY>
77.0583

> <PUBCHEM_FEATURE_SELFOVERLAP>
86.51

> <PUBCHEM_SHAPE_FINGERPRINT>
11135609 12 18198326545939362439
11578080 2 18041005063424892005
12160290 23 17194623861483134620
12553582 1 18129676205043831326
12592029 89 18052557731109106320
12633257 1 17700729304868606275
12788726 201 17760075225200461750
133893 2 17916857032099598109
14068700 675 15553008106231567391
14251757 17 18334298686010597792
14713325 29 13624974896939336048
14955137 171 16772699700202217679
17980427 23 13758063066099886259
20600515 1 18191284031839127177
21304303 282 17321819756173025980
23557571 272 17604425340443777349
23559900 14 18409447012151618189
469060 322 18053131478852786202
550186 7 16884142007222354372
81228 2 17267815081957902381

> <PUBCHEM_SHAPE_MULTIPOLES>
514.33
8.49
3.9
2.96
1.98
2.86
-1.76
-7.24
2.83
-3.69
0.43
2.56
0.41
2.13

> <PUBCHEM_SHAPE_SELFOVERLAP>
1053.411

> <PUBCHEM_SHAPE_VOLUME>
295.7

> <PUBCHEM_COORDINATE_TYPE>
2
5
10

$$$$
