3150626
  -OEChem-10241303123D

 51 52  0     1  0  0  0  0  0999 V2000
    3.5174   -1.5037    0.2191 N   0  0  1  0  0  0  0  0  0  0  0  0
    0.5743    0.5051    0.7921 N   0  0  0  0  0  0  0  0  0  0  0  0
    1.6055    0.7260   -0.2394 C   0  0  1  0  0  0  0  0  0  0  0  0
    2.9743    0.9339    0.4661 C   0  0  1  0  0  0  0  0  0  0  0  0
    1.6725   -0.5262   -1.1379 C   0  0  0  0  0  0  0  0  0  0  0  0
    2.2063   -1.7823   -0.4092 C   0  0  1  0  0  0  0  0  0  0  0  0
    3.4265   -0.3708    1.1581 C   0  0  0  0  0  0  0  0  0  0  0  0
    1.1711    1.9455   -1.0673 C   0  0  0  0  0  0  0  0  0  0  0  0
    4.0840    1.4415   -0.4702 C   0  0  0  0  0  0  0  0  0  0  0  0
    2.2763   -2.9283   -1.4303 C   0  0  0  0  0  0  0  0  0  0  0  0
   -0.7152    0.2717    0.1713 C   0  0  0  0  0  0  0  0  0  0  0  0
    4.0618   -2.6690    0.9225 C   0  0  0  0  0  0  0  0  0  0  0  0
    1.0999    3.1694   -0.2145 C   0  0  0  0  0  0  0  0  0  0  0  0
   -1.7880   -0.0062    1.2248 C   0  0  0  0  0  0  0  0  0  0  0  0
   -0.0111    3.8957   -0.0490 C   0  0  0  0  0  0  0  0  0  0  0  0
   -3.1301   -0.2729    0.5911 C   0  0  0  0  0  0  0  0  0  0  0  0
   -3.9935    0.7860    0.3540 C   0  0  0  0  0  0  0  0  0  0  0  0
   -3.4786   -1.5725    0.2559 C   0  0  0  0  0  0  0  0  0  0  0  0
   -5.2349    0.5394   -0.2323 C   0  0  0  0  0  0  0  0  0  0  0  0
   -4.7200   -1.8191   -0.3304 C   0  0  0  0  0  0  0  0  0  0  0  0
   -5.5981   -0.7632   -0.5745 C   0  0  0  0  0  0  0  0  0  0  0  0
    2.8736    1.6816    1.2648 H   0  0  0  0  0  0  0  0  0  0  0  0
    2.3689   -0.3064   -1.9619 H   0  0  0  0  0  0  0  0  0  0  0  0
    0.7449   -0.7466   -1.6743 H   0  0  0  0  0  0  0  0  0  0  0  0
    1.4820   -2.0751    0.3631 H   0  0  0  0  0  0  0  0  0  0  0  0
    4.4089   -0.1922    1.6149 H   0  0  0  0  0  0  0  0  0  0  0  0
    2.7443   -0.6131    1.9842 H   0  0  0  0  0  0  0  0  0  0  0  0
    0.2574    1.7899   -1.6504 H   0  0  0  0  0  0  0  0  0  0  0  0
    1.9174    2.1390   -1.8493 H   0  0  0  0  0  0  0  0  0  0  0  0
    0.5232    1.2926    1.4359 H   0  0  0  0  0  0  0  0  0  0  0  0
    3.8812    2.4510   -0.8376 H   0  0  0  0  0  0  0  0  0  0  0  0
    5.0379    1.4953    0.0669 H   0  0  0  0  0  0  0  0  0  0  0  0
    4.2342    0.7885   -1.3348 H   0  0  0  0  0  0  0  0  0  0  0  0
    2.4762   -3.8899   -0.9475 H   0  0  0  0  0  0  0  0  0  0  0  0
    1.3225   -3.0347   -1.9595 H   0  0  0  0  0  0  0  0  0  0  0  0
    3.0563   -2.7492   -2.1787 H   0  0  0  0  0  0  0  0  0  0  0  0
   -1.0840    1.1193   -0.4095 H   0  0  0  0  0  0  0  0  0  0  0  0
   -0.7230   -0.6085   -0.4745 H   0  0  0  0  0  0  0  0  0  0  0  0
    3.3690   -3.0540    1.6792 H   0  0  0  0  0  0  0  0  0  0  0  0
    5.0049   -2.4148    1.4205 H   0  0  0  0  0  0  0  0  0  0  0  0
    4.3075   -3.4760    0.2257 H   0  0  0  0  0  0  0  0  0  0  0  0
    2.0064    3.5302    0.2628 H   0  0  0  0  0  0  0  0  0  0  0  0
   -1.8732    0.8431    1.9160 H   0  0  0  0  0  0  0  0  0  0  0  0
   -1.4999   -0.8660    1.8446 H   0  0  0  0  0  0  0  0  0  0  0  0
    0.0044    4.7906    0.5637 H   0  0  0  0  0  0  0  0  0  0  0  0
   -0.9489    3.6173   -0.5165 H   0  0  0  0  0  0  0  0  0  0  0  0
   -3.7186    1.8040    0.6148 H   0  0  0  0  0  0  0  0  0  0  0  0
   -2.8007   -2.4011    0.4400 H   0  0  0  0  0  0  0  0  0  0  0  0
   -5.9184    1.3616   -0.4230 H   0  0  0  0  0  0  0  0  0  0  0  0
   -5.0028   -2.8332   -0.5975 H   0  0  0  0  0  0  0  0  0  0  0  0
   -6.5646   -0.9552   -1.0313 H   0  0  0  0  0  0  0  0  0  0  0  0
  1  6  1  0  0  0  0
  1  7  1  0  0  0  0
  1 12  1  0  0  0  0
  2  3  1  0  0  0  0
  2 11  1  0  0  0  0
  2 30  1  0  0  0  0
  3  4  1  0  0  0  0
  3  5  1  0  0  0  0
  3  8  1  0  0  0  0
  4  7  1  0  0  0  0
  4  9  1  0  0  0  0
  4 22  1  0  0  0  0
  5  6  1  0  0  0  0
  5 23  1  0  0  0  0
  5 24  1  0  0  0  0
  6 10  1  0  0  0  0
  6 25  1  0  0  0  0
  7 26  1  0  0  0  0
  7 27  1  0  0  0  0
  8 13  1  0  0  0  0
  8 28  1  0  0  0  0
  8 29  1  0  0  0  0
  9 31  1  0  0  0  0
  9 32  1  0  0  0  0
  9 33  1  0  0  0  0
 10 34  1  0  0  0  0
 10 35  1  0  0  0  0
 10 36  1  0  0  0  0
 11 14  1  0  0  0  0
 11 37  1  0  0  0  0
 11 38  1  0  0  0  0
 12 39  1  0  0  0  0
 12 40  1  0  0  0  0
 12 41  1  0  0  0  0
 13 15  2  0  0  0  0
 13 42  1  0  0  0  0
 14 16  1  0  0  0  0
 14 43  1  0  0  0  0
 14 44  1  0  0  0  0
 15 45  1  0  0  0  0
 15 46  1  0  0  0  0
 16 17  2  0  0  0  0
 16 18  1  0  0  0  0
 17 19  1  0  0  0  0
 17 47  1  0  0  0  0
 18 20  2  0  0  0  0
 18 48  1  0  0  0  0
 19 21  2  0  0  0  0
 19 49  1  0  0  0  0
 20 21  1  0  0  0  0
 20 50  1  0  0  0  0
 21 51  1  0  0  0  0
M  END
> <PUBCHEM_COMPOUND_CID>
3150626

> <PUBCHEM_CONFORMER_RMSD>
0.8

> <PUBCHEM_CONFORMER_DIVERSEORDER>
10
72
55
107
50
94
62
81
51
76
48
6
17
99
45
38
46
34
67
33
105
2
69
90
15
11
86
13
12
47
31
26
57
87
84
95
44
74
93
27
78
32
8
19
65
66
49
1
21
92
80
98
16
100
52
82
70
91
68
22
4
23
102
30
89
64
71
104
106
29
79
60
14
103
28
85
24
58
42
7
41
77
54
20
96
83
37
40
9
25
18
36
5
101
63
75
108
73
56
3
61
35
97
88
43
53
39
59

> <PUBCHEM_MMFF94_PARTIAL_CHARGES>
26
1 -0.81
11 0.27
12 0.27
13 -0.29
14 0.14
15 -0.3
16 -0.14
17 -0.15
18 -0.15
19 -0.15
2 -0.9
20 -0.15
21 -0.15
3 0.27
30 0.36
42 0.15
45 0.15
46 0.15
47 0.15
48 0.15
49 0.15
50 0.15
51 0.15
6 0.27
7 0.27
8 0.14

> <PUBCHEM_EFFECTIVE_ROTOR_COUNT>
7.2

> <PUBCHEM_PHARMACOPHORE_FEATURES>
6
1 1 cation
1 15 hydrophobe
1 2 cation
1 2 donor
6 1 3 4 5 6 7 rings
6 16 17 18 19 20 21 rings

> <PUBCHEM_HEAVY_ATOM_COUNT>
21

> <PUBCHEM_ATOM_DEF_STEREO_COUNT>
0

> <PUBCHEM_ATOM_UDEF_STEREO_COUNT>
3

> <PUBCHEM_BOND_DEF_STEREO_COUNT>
0

> <PUBCHEM_BOND_UDEF_STEREO_COUNT>
0

> <PUBCHEM_ISOTOPIC_ATOM_COUNT>
0

> <PUBCHEM_COMPONENT_COUNT>
1

> <PUBCHEM_CACTVS_TAUTO_COUNT>
1

> <PUBCHEM_CONFORMER_ID>
003013220000000A

> <PUBCHEM_MMFF94_ENERGY>
49.7655

> <PUBCHEM_FEATURE_SELFOVERLAP>
30.446

> <PUBCHEM_SHAPE_FINGERPRINT>
10616163 171 18124881411124210423
10906281 52 18115325469641450560
116883 192 18265901246023068444
12107183 9 18122909720587453729
12293681 25 17551784829277885822
12553582 1 18194427548515039979
12788726 201 18118134567115063864
13004483 165 18264758883627743794
13083527 12 18335696097324437386
13134695 92 18335979843563894405
13533116 47 18262799696274028659
13583140 156 18117002285124352211
13899415 180 18335406946792808621
14790565 3 17975983373385344316
14866123 147 17543910105440352347
15163728 17 15288495441273205678
15848700 24 18260265218233238040
15848702 151 18408319991284691525
17349148 13 18131351921162882003
17492 89 18337111293185895771
17818456 19 17628935443038637073
18186145 218 17240478148343575745
18222031 100 18341054025828877310
18335252 114 18263349332235352653
18681886 176 18127974315863140888
20626108 58 18340757208923095635
20645477 70 18410857650567186255
20739085 24 18412821404663120758
21250096 35 18408602543707414803
22289505 5 18261106391820769517
22393880 68 18124045786307307061
2255824 54 18195533820284391188
23559900 14 18341045328572649353
3004659 81 18411983533452415267
3060560 45 18270409420228316476
463206 1 18113898208959428531
5104073 3 18342461439488384987
5281201 14 18261394485953480093
54040823 5 18335706082732952146
6443956 14 18335702715098803172
67856867 119 18268987773126409225
7164475 11 18262237699365880532
81228 2 17900557682872529704
960060 61 17968104105266196318
9709674 26 18335988683229068803
9971528 1 18408037411852779744
9981440 41 17471007455329027641

> <PUBCHEM_SHAPE_MULTIPOLES>
422.21
10.55
3.59
1.12
13.24
1.8
0.05
-5.09
-0.04
-3.06
0.68
-0.57
-0.36
-0.44

> <PUBCHEM_SHAPE_SELFOVERLAP>
858.84

> <PUBCHEM_SHAPE_VOLUME>
242.8

> <PUBCHEM_COORDINATE_TYPE>
2
5
10

$$$$
