66693
  -OEChem-10241302463D

 39 39  0     1  0  0  0  0  0999 V2000
   -4.1426    0.8790    0.0876 S   0  0  0  0  0  0  0  0  0  0  0  0
   -5.4406    0.8513   -0.5575 O   0  0  0  0  0  0  0  0  0  0  0  0
   -3.3709    2.1055    0.1495 O   0  0  0  0  0  0  0  0  0  0  0  0
    0.3410   -1.6048   -0.1836 N   0  0  3  0  0  0  0  0  0  0  0  0
   -3.1507   -0.3531   -0.5548 N   0  0  0  0  0  0  0  0  0  0  0  0
    4.5055    2.1043    0.4470 N   0  0  0  0  0  0  0  0  0  0  0  0
   -0.8887   -1.2556   -0.8554 C   0  0  0  0  0  0  0  0  0  0  0  0
   -1.8974   -0.7019    0.1381 C   0  0  0  0  0  0  0  0  0  0  0  0
    1.3783   -0.6750   -0.0287 C   0  0  0  0  0  0  0  0  0  0  0  0
    0.4849   -2.9589    0.3529 C   0  0  0  0  0  0  0  0  0  0  0  0
    1.2474    0.6213   -0.5390 C   0  0  0  0  0  0  0  0  0  0  0  0
    2.5548   -1.0347    0.6380 C   0  0  0  0  0  0  0  0  0  0  0  0
    2.2798    1.5464   -0.3843 C   0  0  0  0  0  0  0  0  0  0  0  0
    1.3025   -3.8130   -0.5970 C   0  0  0  0  0  0  0  0  0  0  0  0
    3.4497    1.1810    0.2818 C   0  0  0  0  0  0  0  0  0  0  0  0
    3.5872   -0.1095    0.7929 C   0  0  0  0  0  0  0  0  0  0  0  0
    2.1075    2.9216   -0.9424 C   0  0  0  0  0  0  0  0  0  0  0  0
   -4.3477    0.2961    1.7550 C   0  0  0  0  0  0  0  0  0  0  0  0
   -1.3187   -2.1613   -1.3070 H   0  0  0  0  0  0  0  0  0  0  0  0
   -0.7486   -0.5953   -1.7184 H   0  0  0  0  0  0  0  0  0  0  0  0
   -1.4850    0.1842    0.6319 H   0  0  0  0  0  0  0  0  0  0  0  0
   -2.1176   -1.4467    0.9110 H   0  0  0  0  0  0  0  0  0  0  0  0
    0.8917   -2.9674    1.3702 H   0  0  0  0  0  0  0  0  0  0  0  0
   -0.5065   -3.4202    0.4525 H   0  0  0  0  0  0  0  0  0  0  0  0
    0.3496    0.9560   -1.0475 H   0  0  0  0  0  0  0  0  0  0  0  0
   -3.6385   -1.1680   -0.9501 H   0  0  0  0  0  0  0  0  0  0  0  0
    2.7263   -2.0176    1.0624 H   0  0  0  0  0  0  0  0  0  0  0  0
    0.8294   -3.8595   -1.5841 H   0  0  0  0  0  0  0  0  0  0  0  0
    2.3197   -3.4387   -0.7404 H   0  0  0  0  0  0  0  0  0  0  0  0
    1.3751   -4.8358   -0.2133 H   0  0  0  0  0  0  0  0  0  0  0  0
    4.4938   -0.4063    1.3145 H   0  0  0  0  0  0  0  0  0  0  0  0
    2.1626    3.6694   -0.1442 H   0  0  0  0  0  0  0  0  0  0  0  0
    2.8777    3.1309   -1.6922 H   0  0  0  0  0  0  0  0  0  0  0  0
    1.1364    3.0458   -1.4342 H   0  0  0  0  0  0  0  0  0  0  0  0
   -3.3878    0.3092    2.2727 H   0  0  0  0  0  0  0  0  0  0  0  0
   -5.0408    0.9728    2.2606 H   0  0  0  0  0  0  0  0  0  0  0  0
   -4.7722   -0.7093    1.7300 H   0  0  0  0  0  0  0  0  0  0  0  0
    4.4343    3.0466    0.0894 H   0  0  0  0  0  0  0  0  0  0  0  0
    5.3458    1.8211    0.9341 H   0  0  0  0  0  0  0  0  0  0  0  0
  1  2  2  0  0  0  0
  1  3  2  0  0  0  0
  1  5  1  0  0  0  0
  1 18  1  0  0  0  0
  4  7  1  0  0  0  0
  4  9  1  0  0  0  0
  4 10  1  0  0  0  0
  5  8  1  0  0  0  0
  5 26  1  0  0  0  0
  6 15  1  0  0  0  0
  6 38  1  0  0  0  0
  6 39  1  0  0  0  0
  7  8  1  0  0  0  0
  7 19  1  0  0  0  0
  7 20  1  0  0  0  0
  8 21  1  0  0  0  0
  8 22  1  0  0  0  0
  9 11  2  0  0  0  0
  9 12  1  0  0  0  0
 10 14  1  0  0  0  0
 10 23  1  0  0  0  0
 10 24  1  0  0  0  0
 11 13  1  0  0  0  0
 11 25  1  0  0  0  0
 12 16  2  0  0  0  0
 12 27  1  0  0  0  0
 13 15  2  0  0  0  0
 13 17  1  0  0  0  0
 14 28  1  0  0  0  0
 14 29  1  0  0  0  0
 14 30  1  0  0  0  0
 15 16  1  0  0  0  0
 16 31  1  0  0  0  0
 17 32  1  0  0  0  0
 17 33  1  0  0  0  0
 17 34  1  0  0  0  0
 18 35  1  0  0  0  0
 18 36  1  0  0  0  0
 18 37  1  0  0  0  0
M  END
> <PUBCHEM_COMPOUND_CID>
66693

> <PUBCHEM_CONFORMER_RMSD>
0.8

> <PUBCHEM_CONFORMER_DIVERSEORDER>
7
267
133
336
153
83
119
264
156
222
172
302
149
138
235
144
3
182
323
190
162
217
170
306
147
231
122
243
294
53
335
283
298
34
249
105
196
210
329
313
337
339
290
101
207
272
178
273
320
233
257
262
286
95
213
140
253
104
319
39
181
312
9
118
126
176
242
62
84
201
80
284
259
189
109
263
220
146
31
301
241
142
276
94
333
212
81
237
274
310
180
338
175
166
309
208
191
281
102
74
129
23
89
254
331
50
325
261
244
238
66
271
305
41
247
285
151
326
184
160
141
341
16
113
197
277
110
314
159
125
204
15
177
93
295
55
334
200
112
148
167
155
316
68
72
292
203
289
145
85
51
154
205
280
232
30
318
240
211
90
266
150
186
1
185
35
270
79
169
308
18
193
139
246
209
219
114
42
76
327
128
163
239
287
215
61
29
226
269
5
28
304
37
117
216
251
187
303
255
296
234
236
195
38
300
152
225
307
120
123
130
228
69
135
52
171
132
43
36
10
340
124
199
59
282
248
158
32
19
143
165
183
315
82
157
288
77
221
63
179
86
111
96
108
229
230
57
97
98
299
48
116
174
49
268
256
88
258
99
60
202
91
136
198
44
250
192
311
278
14
188
291
321
87
22
107
56
71
78
103
127
47
115
12
275
20
25
293
27
131
100
45
26
13
330
332
58
324
24
161
67
164
40
224
223
214
252
218
317
33
64
265
2
92
279
106
260
168
8
322
137
65
46
6
206
227
328
21
73
17
297
121
75
54
245
134
70
194
173
4
11

> <PUBCHEM_MMFF94_PARTIAL_CHARGES>
23
1 1.33
10 0.37
11 -0.15
12 -0.15
13 -0.14
15 0.1
16 -0.15
17 0.14
18 0.11
2 -0.65
25 0.15
26 0.42
27 0.15
3 -0.65
31 0.15
38 0.4
39 0.4
4 -0.84
5 -0.91
6 -0.9
7 0.37
8 0.36
9 0.1

> <PUBCHEM_EFFECTIVE_ROTOR_COUNT>
6

> <PUBCHEM_PHARMACOPHORE_FEATURES>
7
1 2 acceptor
1 3 acceptor
1 4 cation
1 5 donor
1 6 cation
1 6 donor
6 9 11 12 13 15 16 rings

> <PUBCHEM_HEAVY_ATOM_COUNT>
18

> <PUBCHEM_ATOM_DEF_STEREO_COUNT>
0

> <PUBCHEM_ATOM_UDEF_STEREO_COUNT>
0

> <PUBCHEM_BOND_DEF_STEREO_COUNT>
0

> <PUBCHEM_BOND_UDEF_STEREO_COUNT>
0

> <PUBCHEM_ISOTOPIC_ATOM_COUNT>
0

> <PUBCHEM_COMPONENT_COUNT>
1

> <PUBCHEM_CACTVS_TAUTO_COUNT>
1

> <PUBCHEM_CONFORMER_ID>
0001048500000007

> <PUBCHEM_MMFF94_ENERGY>
57.169

> <PUBCHEM_FEATURE_SELFOVERLAP>
35.538

> <PUBCHEM_SHAPE_FINGERPRINT>
10382601 240 18260260816087068674
10465860 228 18341897337892968187
12403259 327 16732699462893975993
12633257 1 17603575327091033457
12788726 201 17766824392660815214
13583140 156 17023451045310018027
14026960 21 18334304188370190593
14123255 52 18411981394415848345
14178342 30 17905306770525626794
14790565 3 18335145323630343372
15188451 53 15864356921585919185
15906896 17 17983852573593897374
1741750 31 18196091260153149586
18186145 218 18271255983519216670
20157964 124 18337382739782534053
20671657 1 18268998591953855711
20739085 24 18260829255203911932
20871999 31 10807670977485682027
21524375 3 18200594808119710311
21665062 11 18260830410270662956
21713013 43 12103559775955812497
21731228 192 18335707203350573427
23532345 1 18410012088119210147
23558518 356 18191301791840573518
2838139 119 15625641926103959576
3091708 16 9262215034043996154
474 4 18410571786423835099
49207404 50 18188226359143362003
633830 44 18272932730267291942
7364860 26 18269554940231397487
7832392 63 18192425484486660036
8272917 22 18339642239702713791

> <PUBCHEM_SHAPE_MULTIPOLES>
347.6
9.02
3.54
1.03
10.17
2.2
0.22
-6.55
2.01
-2.76
-0.81
0.49
-0.07
-0.23

> <PUBCHEM_SHAPE_SELFOVERLAP>
684.907

> <PUBCHEM_SHAPE_VOLUME>
210.5

> <PUBCHEM_COORDINATE_TYPE>
2
5
10

$$$$
