24872560
  -OEChem-10241303073D

 48 51  0     0  0  0  0  0  0999 V2000
    0.2127   -1.1539    1.5000 S   0  0  0  0  0  0  0  0  0  0  0  0
   -3.8910   -2.8358   -0.7876 F   0  0  0  0  0  0  0  0  0  0  0  0
    3.6697   -3.2484   -0.2668 F   0  0  0  0  0  0  0  0  0  0  0  0
    5.4960   -2.6219   -1.2549 F   0  0  0  0  0  0  0  0  0  0  0  0
    5.4479   -2.8219    0.9099 F   0  0  0  0  0  0  0  0  0  0  0  0
    1.4520    3.1764   -0.8734 O   0  0  0  0  0  0  0  0  0  0  0  0
   -6.4552   -2.3383   -1.0160 O   0  0  0  0  0  0  0  0  0  0  0  0
   -1.1145    0.9542    0.2574 N   0  0  0  0  0  0  0  0  0  0  0  0
    1.1837    1.0669    0.1299 N   0  0  0  0  0  0  0  0  0  0  0  0
    4.8836    1.3782    0.2360 N   0  0  0  0  0  0  0  0  0  0  0  0
   -7.2410   -0.9601    0.6749 N   0  0  0  0  0  0  0  0  0  0  0  0
    7.7766   -0.3448    0.1084 N   0  0  0  0  0  0  0  0  0  0  0  0
   -0.7951    2.3674   -0.1313 C   0  0  0  0  0  0  0  0  0  0  0  0
   -1.6279    3.0369   -1.2496 C   0  0  0  0  0  0  0  0  0  0  0  0
   -1.2533    3.4840    0.8408 C   0  0  0  0  0  0  0  0  0  0  0  0
   -1.7049    4.3063   -0.3802 C   0  0  0  0  0  0  0  0  0  0  0  0
    0.7629    2.3049   -0.3486 C   0  0  0  0  0  0  0  0  0  0  0  0
    0.1034    0.2546    0.5784 C   0  0  0  0  0  0  0  0  0  0  0  0
   -2.4104    0.3516    0.1421 C   0  0  0  0  0  0  0  0  0  0  0  0
    2.5659    0.7001    0.1173 C   0  0  0  0  0  0  0  0  0  0  0  0
   -2.5286   -0.9742   -0.2750 C   0  0  0  0  0  0  0  0  0  0  0  0
   -3.5529    1.0910    0.4478 C   0  0  0  0  0  0  0  0  0  0  0  0
    2.9538   -0.6288   -0.0134 C   0  0  0  0  0  0  0  0  0  0  0  0
    3.5608    1.6572    0.2378 C   0  0  0  0  0  0  0  0  0  0  0  0
   -3.7893   -1.5606   -0.3861 C   0  0  0  0  0  0  0  0  0  0  0  0
   -4.8137    0.5047    0.3366 C   0  0  0  0  0  0  0  0  0  0  0  0
   -4.9318   -0.8210   -0.0804 C   0  0  0  0  0  0  0  0  0  0  0  0
    4.3055   -0.9553   -0.0197 C   0  0  0  0  0  0  0  0  0  0  0  0
    5.2224    0.0758    0.1071 C   0  0  0  0  0  0  0  0  0  0  0  0
   -6.2483   -1.4292   -0.1930 C   0  0  0  0  0  0  0  0  0  0  0  0
    4.7195   -2.3808   -0.1571 C   0  0  0  0  0  0  0  0  0  0  0  0
    6.6314   -0.1562    0.1078 C   0  0  0  0  0  0  0  0  0  0  0  0
   -8.5896   -1.4791    0.7010 C   0  0  0  0  0  0  0  0  0  0  0  0
   -2.6043    2.6045   -1.4799 H   0  0  0  0  0  0  0  0  0  0  0  0
   -1.1038    3.1770   -2.2012 H   0  0  0  0  0  0  0  0  0  0  0  0
   -0.4485    3.9560    1.4164 H   0  0  0  0  0  0  0  0  0  0  0  0
   -2.0421    3.2363    1.5532 H   0  0  0  0  0  0  0  0  0  0  0  0
   -0.9881    5.0811   -0.6744 H   0  0  0  0  0  0  0  0  0  0  0  0
   -2.6979    4.7563   -0.2979 H   0  0  0  0  0  0  0  0  0  0  0  0
   -1.6737   -1.5643   -0.5882 H   0  0  0  0  0  0  0  0  0  0  0  0
   -3.5232    2.1195    0.7764 H   0  0  0  0  0  0  0  0  0  0  0  0
    2.2403   -1.4165   -0.2213 H   0  0  0  0  0  0  0  0  0  0  0  0
    3.3546    2.7093    0.3973 H   0  0  0  0  0  0  0  0  0  0  0  0
   -5.6808    1.1205    0.5581 H   0  0  0  0  0  0  0  0  0  0  0  0
   -7.0078   -0.2757    1.3868 H   0  0  0  0  0  0  0  0  0  0  0  0
   -9.2633   -0.6786    1.0153 H   0  0  0  0  0  0  0  0  0  0  0  0
   -8.6280   -2.2985    1.4230 H   0  0  0  0  0  0  0  0  0  0  0  0
   -8.8782   -1.8466   -0.2868 H   0  0  0  0  0  0  0  0  0  0  0  0
  1 18  2  0  0  0  0
  2 25  1  0  0  0  0
  3 31  1  0  0  0  0
  4 31  1  0  0  0  0
  5 31  1  0  0  0  0
  6 17  2  0  0  0  0
  7 30  2  0  0  0  0
  8 13  1  0  0  0  0
  8 18  1  0  0  0  0
  8 19  1  0  0  0  0
  9 17  1  0  0  0  0
  9 18  1  0  0  0  0
  9 20  1  0  0  0  0
 10 24  2  0  0  0  0
 10 29  1  0  0  0  0
 11 30  1  0  0  0  0
 11 33  1  0  0  0  0
 11 45  1  0  0  0  0
 12 32  3  0  0  0  0
 13 14  1  0  0  0  0
 13 15  1  0  0  0  0
 13 17  1  0  0  0  0
 14 16  1  0  0  0  0
 14 34  1  0  0  0  0
 14 35  1  0  0  0  0
 15 16  1  0  0  0  0
 15 36  1  0  0  0  0
 15 37  1  0  0  0  0
 16 38  1  0  0  0  0
 16 39  1  0  0  0  0
 19 21  2  0  0  0  0
 19 22  1  0  0  0  0
 20 23  2  0  0  0  0
 20 24  1  0  0  0  0
 21 25  1  0  0  0  0
 21 40  1  0  0  0  0
 22 26  2  0  0  0  0
 22 41  1  0  0  0  0
 23 28  1  0  0  0  0
 23 42  1  0  0  0  0
 24 43  1  0  0  0  0
 25 27  2  0  0  0  0
 26 27  1  0  0  0  0
 26 44  1  0  0  0  0
 27 30  1  0  0  0  0
 28 29  2  0  0  0  0
 28 31  1  0  0  0  0
 29 32  1  0  0  0  0
 33 46  1  0  0  0  0
 33 47  1  0  0  0  0
 33 48  1  0  0  0  0
M  END
> <PUBCHEM_COMPOUND_CID>
24872560

> <PUBCHEM_CONFORMER_RMSD>
0.8

> <PUBCHEM_CONFORMER_DIVERSEORDER>
5
48
20
30
49
37
15
46
45
32
35
39
41
31
2
17
33
22
7
44
38
47
9
14
8
13
26
27
36
11
16
1
29
24
23
43
10
21
3
6
40
28
34
42
4
25
18
19
12

> <PUBCHEM_MMFF94_PARTIAL_CHARGES>
36
1 -0.38
10 -0.62
11 -0.73
12 -0.56
13 0.28
17 0.58
18 0.5
19 0.12
2 -0.19
20 0.12
21 -0.15
22 -0.15
23 -0.15
24 0.16
25 0.19
26 -0.15
27 0.09
28 -0.14
29 0.38
3 -0.34
30 0.54
31 1.16
32 0.48
33 0.3
4 -0.34
40 0.15
41 0.15
42 0.15
43 0.15
44 0.15
45 0.37
5 -0.34
6 -0.57
7 -0.57
8 -0.4
9 -0.24

> <PUBCHEM_EFFECTIVE_ROTOR_COUNT>
6

> <PUBCHEM_PHARMACOPHORE_FEATURES>
10
1 1 acceptor
1 10 acceptor
1 11 donor
1 12 acceptor
1 6 acceptor
1 7 acceptor
4 13 14 15 16 rings
5 8 9 13 17 18 rings
6 10 20 23 24 28 29 rings
6 19 21 22 25 26 27 rings

> <PUBCHEM_HEAVY_ATOM_COUNT>
33

> <PUBCHEM_ATOM_DEF_STEREO_COUNT>
0

> <PUBCHEM_ATOM_UDEF_STEREO_COUNT>
0

> <PUBCHEM_BOND_DEF_STEREO_COUNT>
0

> <PUBCHEM_BOND_UDEF_STEREO_COUNT>
0

> <PUBCHEM_ISOTOPIC_ATOM_COUNT>
0

> <PUBCHEM_COMPONENT_COUNT>
1

> <PUBCHEM_CACTVS_TAUTO_COUNT>
2

> <PUBCHEM_CONFORMER_ID>
017B867000000005

> <PUBCHEM_MMFF94_ENERGY>
119.7156

> <PUBCHEM_FEATURE_SELFOVERLAP>
50.786

> <PUBCHEM_SHAPE_FINGERPRINT>
10 15 12031793569699940351
10050765 1 18266740178444285816
10411042 1 18408604777207271589
10595046 47 18408324359482943120
10693767 8 18338785827935869343
11497681 19 18342179951689815548
11963148 33 18409440398003248330
12107183 9 18343310293009508571
12236239 1 18271810189715834433
12422481 6 17988370256302297983
12623949 98 18059867129728130334
12788726 201 18334005064898140120
13248334 5 17979352289929672993
13533116 47 18272089439123947937
1361 2 18410856590095581066
13631057 29 18410854344059507984
13782708 43 17774996869321008463
14068700 675 18408323306683751540
14347332 77 18336542707812622378
14394314 77 18411141299509603049
14681490 219 18335415764276400923
14790565 3 17113820687882429208
14955137 171 18336272336054365763
15131766 46 15480113951401926808
15183329 4 18411979178371596435
15361156 5 18189635872773110660
16087824 20 18337106754112553493
17492 89 18267864978628705470
17980427 26 17338423919667954653
1813 80 17821729437706176485
18393751 57 17909804851273789312
18608769 82 18341889706537683256
19301679 30 18411704257878372139
20028762 73 18413387652782595166
21130935 74 18195238916274392002
21267235 1 18335704979258880713
21478907 32 18410009910133317837
22224240 67 10519994764121907489
23522609 53 18122939544498368208
23559900 14 18339914940378133128
244849 19 17702073947011376872
24771750 20 17320433710208270085
283562 15 18261110721189872129
2838139 119 7997963561955977672
3004659 81 18113895000554813472
3103668 31 18115300069869884293
335352 9 18411417350311299263
4073 2 18262801911760047466
44880168 125 17203605943996521894
46194498 28 17531803683734177853
463206 1 18266176321561993502
5104073 3 18130784517070088000
70251023 43 18407478860157126257
7970288 3 18340201994533003663

> <PUBCHEM_SHAPE_MULTIPOLES>
617.24
18.65
4.21
0.94
6.21
2.6
-0.03
-17.33
-0.49
0.22
0.86
0.27
-0.07
-0.08

> <PUBCHEM_SHAPE_SELFOVERLAP>
1340.984

> <PUBCHEM_SHAPE_VOLUME>
341.3

> <PUBCHEM_COORDINATE_TYPE>
2
5
10

$$$$
