185617
  -OEChem-10241302563D

 51 54  0     1  0  0  0  0  0999 V2000
   -3.1585   -0.0657   -0.3835 O   0  0  0  0  0  0  0  0  0  0  0  0
   -2.2880    0.7669    1.6144 O   0  0  0  0  0  0  0  0  0  0  0  0
   -6.2610   -1.9086    1.5785 O   0  0  0  0  0  0  0  0  0  0  0  0
   -3.8387   -1.1088    3.0504 O   0  0  0  0  0  0  0  0  0  0  0  0
   -5.5507   -2.7338   -1.1164 O   0  0  0  0  0  0  0  0  0  0  0  0
   -4.3916   -1.6179   -3.2813 O   0  0  0  0  0  0  0  0  0  0  0  0
   -3.6312    0.4835   -2.8320 O   0  0  0  0  0  0  0  0  0  0  0  0
    2.2394   -0.0603    0.4676 O   0  0  0  0  0  0  0  0  0  0  0  0
   -2.1050    3.3489    0.6384 O   0  0  0  0  0  0  0  0  0  0  0  0
    0.2362    4.2552   -0.4312 O   0  0  0  0  0  0  0  0  0  0  0  0
    2.7187    3.7021   -1.0198 O   0  0  0  0  0  0  0  0  0  0  0  0
    7.4968   -3.5491    0.0512 O   0  0  0  0  0  0  0  0  0  0  0  0
   -4.9466   -1.8171    1.0271 C   0  0  2  0  0  0  0  0  0  0  0  0
   -4.1766   -0.6964    1.7262 C   0  0  2  0  0  0  0  0  0  0  0  0
   -5.0803   -1.5507   -0.4726 C   0  0  1  0  0  0  0  0  0  0  0  0
   -2.8824   -0.3662    0.9821 C   0  0  1  0  0  0  0  0  0  0  0  0
   -3.7345   -1.1679   -1.0752 C   0  0  1  0  0  0  0  0  0  0  0  0
   -3.8989   -0.6519   -2.4681 C   0  0  0  0  0  0  0  0  0  0  0  0
   -1.1172    1.2201    1.0805 C   0  0  0  0  0  0  0  0  0  0  0  0
   -0.0130    0.3686    1.0320 C   0  0  0  0  0  0  0  0  0  0  0  0
   -1.0202    2.5217    0.5865 C   0  0  0  0  0  0  0  0  0  0  0  0
    1.1890    0.8218    0.4878 C   0  0  0  0  0  0  0  0  0  0  0  0
    1.2840    2.1222   -0.0050 C   0  0  0  0  0  0  0  0  0  0  0  0
    0.1809    2.9780    0.0419 C   0  0  0  0  0  0  0  0  0  0  0  0
    2.5635    2.5743   -0.5721 C   0  0  0  0  0  0  0  0  0  0  0  0
    3.4443    0.3597   -0.0745 C   0  0  0  0  0  0  0  0  0  0  0  0
    3.6617    1.5870   -0.5737 C   0  0  0  0  0  0  0  0  0  0  0  0
    4.5071   -0.6651   -0.0410 C   0  0  0  0  0  0  0  0  0  0  0  0
    5.8458   -0.2846    0.0794 C   0  0  0  0  0  0  0  0  0  0  0  0
    4.1782   -2.0201   -0.1302 C   0  0  0  0  0  0  0  0  0  0  0  0
    6.8495   -1.2529    0.1104 C   0  0  0  0  0  0  0  0  0  0  0  0
    5.1818   -2.9883   -0.0991 C   0  0  0  0  0  0  0  0  0  0  0  0
    6.5175   -2.6047    0.0211 C   0  0  0  0  0  0  0  0  0  0  0  0
   -4.4668   -2.7876    1.2054 H   0  0  0  0  0  0  0  0  0  0  0  0
   -4.8021    0.2006    1.8167 H   0  0  0  0  0  0  0  0  0  0  0  0
   -5.8287   -0.7676   -0.6464 H   0  0  0  0  0  0  0  0  0  0  0  0
   -2.1979   -1.2222    1.0477 H   0  0  0  0  0  0  0  0  0  0  0  0
   -3.0209   -2.0007   -1.1020 H   0  0  0  0  0  0  0  0  0  0  0  0
   -6.1723   -2.1634    2.5122 H   0  0  0  0  0  0  0  0  0  0  0  0
   -4.6680   -1.2274    3.5431 H   0  0  0  0  0  0  0  0  0  0  0  0
   -4.8934   -3.4362   -0.9744 H   0  0  0  0  0  0  0  0  0  0  0  0
   -0.0699   -0.6406    1.4307 H   0  0  0  0  0  0  0  0  0  0  0  0
   -4.5087   -1.2980   -4.2011 H   0  0  0  0  0  0  0  0  0  0  0  0
    4.6009    1.9088   -1.0081 H   0  0  0  0  0  0  0  0  0  0  0  0
   -2.8433    2.8616    1.0435 H   0  0  0  0  0  0  0  0  0  0  0  0
    1.1163    4.4528   -0.7855 H   0  0  0  0  0  0  0  0  0  0  0  0
    6.1439    0.7562    0.1736 H   0  0  0  0  0  0  0  0  0  0  0  0
    3.1463   -2.3471   -0.2333 H   0  0  0  0  0  0  0  0  0  0  0  0
    7.8860   -0.9416    0.2092 H   0  0  0  0  0  0  0  0  0  0  0  0
    4.9173   -4.0398   -0.1709 H   0  0  0  0  0  0  0  0  0  0  0  0
    8.3587   -3.1068    0.1377 H   0  0  0  0  0  0  0  0  0  0  0  0
  1 16  1  0  0  0  0
  1 17  1  0  0  0  0
  2 16  1  0  0  0  0
  2 19  1  0  0  0  0
  3 13  1  0  0  0  0
  3 39  1  0  0  0  0
  4 14  1  0  0  0  0
  4 40  1  0  0  0  0
  5 15  1  0  0  0  0
  5 41  1  0  0  0  0
  6 18  1  0  0  0  0
  6 43  1  0  0  0  0
  7 18  2  0  0  0  0
  8 22  1  0  0  0  0
  8 26  1  0  0  0  0
  9 21  1  0  0  0  0
  9 45  1  0  0  0  0
 10 24  1  0  0  0  0
 10 46  1  0  0  0  0
 11 25  2  0  0  0  0
 12 33  1  0  0  0  0
 12 51  1  0  0  0  0
 13 14  1  0  0  0  0
 13 15  1  0  0  0  0
 13 34  1  0  0  0  0
 14 16  1  0  0  0  0
 14 35  1  0  0  0  0
 15 17  1  0  0  0  0
 15 36  1  0  0  0  0
 16 37  1  0  0  0  0
 17 18  1  0  0  0  0
 17 38  1  0  0  0  0
 19 20  1  0  0  0  0
 19 21  2  0  0  0  0
 20 22  2  0  0  0  0
 20 42  1  0  0  0  0
 21 24  1  0  0  0  0
 22 23  1  0  0  0  0
 23 24  2  0  0  0  0
 23 25  1  0  0  0  0
 25 27  1  0  0  0  0
 26 27  2  0  0  0  0
 26 28  1  0  0  0  0
 27 44  1  0  0  0  0
 28 29  2  0  0  0  0
 28 30  1  0  0  0  0
 29 31  1  0  0  0  0
 29 47  1  0  0  0  0
 30 32  2  0  0  0  0
 30 48  1  0  0  0  0
 31 33  2  0  0  0  0
 31 49  1  0  0  0  0
 32 33  1  0  0  0  0
 32 50  1  0  0  0  0
M  END
> <PUBCHEM_COMPOUND_CID>
185617

> <PUBCHEM_CONFORMER_RMSD>
0.8

> <PUBCHEM_CONFORMER_DIVERSEORDER>
1
75
58
10
8
33
69
15
80
41
7
24
72
62
16
60
6
57
46
53
14
47
68
19
78
3
50
64
48
56
34
25
9
76
49
74
73
26
2
5
54
71
51
17
79
18
42
30
59
70
66
4
45
32
11
39
21
40
63
65
37
28
52
35
20
43
38
44
12
27
36
13
23
55
22
29
61
67
31
77

> <PUBCHEM_MMFF94_PARTIAL_CHARGES>
46
1 -0.56
10 -0.53
11 -0.57
12 -0.53
13 0.28
14 0.28
15 0.28
16 0.56
17 0.34
18 0.66
19 0.08
2 -0.36
20 -0.15
21 0.08
22 0.08
23 0.09
24 0.08
25 0.47
26 0.05
27 -0.14
28 0.03
29 -0.15
3 -0.68
30 -0.15
31 -0.15
32 -0.15
33 0.08
39 0.4
4 -0.68
40 0.4
41 0.4
42 0.15
43 0.5
44 0.15
45 0.45
46 0.45
47 0.15
48 0.15
49 0.15
5 -0.68
50 0.15
51 0.45
6 -0.65
7 -0.57
8 -0.16
9 -0.53

> <PUBCHEM_EFFECTIVE_ROTOR_COUNT>
5.2

> <PUBCHEM_PHARMACOPHORE_FEATURES>
20
1 1 acceptor
1 10 donor
1 11 acceptor
1 12 donor
1 2 acceptor
1 3 acceptor
1 3 donor
1 4 acceptor
1 4 donor
1 5 acceptor
1 5 donor
1 6 acceptor
1 7 acceptor
1 8 acceptor
1 9 donor
3 6 7 18 anion
6 1 13 14 15 16 17 rings
6 19 20 21 22 23 24 rings
6 28 29 30 31 32 33 rings
6 8 22 23 25 26 27 rings

> <PUBCHEM_HEAVY_ATOM_COUNT>
33

> <PUBCHEM_ATOM_DEF_STEREO_COUNT>
5

> <PUBCHEM_ATOM_UDEF_STEREO_COUNT>
0

> <PUBCHEM_BOND_DEF_STEREO_COUNT>
0

> <PUBCHEM_BOND_UDEF_STEREO_COUNT>
0

> <PUBCHEM_ISOTOPIC_ATOM_COUNT>
0

> <PUBCHEM_COMPONENT_COUNT>
1

> <PUBCHEM_CACTVS_TAUTO_COUNT>
42

> <PUBCHEM_CONFORMER_ID>
0002D51100000001

> <PUBCHEM_MMFF94_ENERGY>
103.6374

> <PUBCHEM_FEATURE_SELFOVERLAP>
101.674

> <PUBCHEM_SHAPE_FINGERPRINT>
10319926 262 15051746299488097140
10622 236 18342734126349947702
10670039 82 14707200024336060615
11135609 149 18337661014239021372
11135926 11 18119541079058856956
11227688 84 18117844300715306066
11410812 94 15936683767419500046
11497681 19 18272373032780539166
12166972 35 17894639162251578238
12342043 65 17605573247625713163
12422481 6 17274834505892033694
12633257 1 15985105240544093833
13540713 5 18265078901884484312
13673619 4 17386300882256634739
13782708 43 17677333947638773699
13911987 19 17540272250729734477
14429380 30 18335989679756310042
14950920 106 16343691141201763002
15183329 4 15502372314459912706
15320294 125 17489594493554233103
15361156 5 17973189257077963866
17492 89 18409174311556106320
17686467 74 18410568458873869858
1813 80 18200889460077346581
19303781 99 18408879633955916222
19315092 285 17632293531832723576
20554085 129 15553065242762144787
208703 8 18410013225774464562
21033650 10 15791728590091341989
21703447 108 18336537288181626024
22393880 68 17385715919846734802
23536364 44 18040710338331290321
23559900 14 18333734628409782488
23569914 152 18048847777282085727
25025965 108 18053643816812488058
2838139 119 13479134579915425534
34797466 226 16371575954435721909
3882209 13 17174866776089718098
4015057 19 18262524813243637779
46194498 28 17241612908077243660
513202 73 18341334392255476847
5364581 5 14045443596651434114
5874358 3 15696290011171954023
5937810 71 9077956724785680610
6034566 193 9223223053045179416
613672 6 18261661641324824376
6431902 208 18411136896967664158
6691757 9 17630052546694591913
6712543 237 15985106271547820206
7970288 3 18411984701567806819
86090 222 14096920884533781991

> <PUBCHEM_SHAPE_MULTIPOLES>
608.69
16.69
4.38
2
12.52
2.67
-0.89
-21.18
-0.83
3.36
-0.59
-5.17
-0.82
-0.95

> <PUBCHEM_SHAPE_SELFOVERLAP>
1345.807

> <PUBCHEM_SHAPE_VOLUME>
322

> <PUBCHEM_COORDINATE_TYPE>
2
5
10

$$$$
