9917512
  -OEChem-10241302483D

 61 63  0     1  0  0  0  0  0999 V2000
    2.3109    0.2886   -0.5757 O   0  0  0  0  0  0  0  0  0  0  0  0
    4.0549    3.5018   -0.3587 O   0  0  0  0  0  0  0  0  0  0  0  0
    6.1459    1.5702    0.1436 O   0  0  0  0  0  0  0  0  0  0  0  0
    2.7741   -1.8240    0.2997 O   0  0  0  0  0  0  0  0  0  0  0  0
    5.0680   -0.7677    1.5765 O   0  0  0  0  0  0  0  0  0  0  0  0
    0.2583    1.9333   -1.3746 O   0  0  0  0  0  0  0  0  0  0  0  0
    1.7218   -3.1367   -1.9046 O   0  0  0  0  0  0  0  0  0  0  0  0
   -0.9035   -4.0178   -1.8564 O   0  0  0  0  0  0  0  0  0  0  0  0
   -0.1605    3.7335   -0.0022 O   0  0  0  0  0  0  0  0  0  0  0  0
   -5.0762    2.9732    1.1419 O   0  0  0  0  0  0  0  0  0  0  0  0
   -3.8507   -0.6470   -1.7439 O   0  0  0  0  0  0  0  0  0  0  0  0
   -5.7559    0.6546   -0.2119 O   0  0  0  0  0  0  0  0  0  0  0  0
    3.9232    2.0985   -0.5699 C   0  0  1  0  0  0  0  0  0  0  0  0
    4.7703    1.3506    0.4598 C   0  0  1  0  0  0  0  0  0  0  0  0
    2.4491    1.7049   -0.4494 C   0  0  1  0  0  0  0  0  0  0  0  0
    4.4753   -0.1491    0.4348 C   0  0  2  0  0  0  0  0  0  0  0  0
    2.9714   -0.4207    0.4699 C   0  0  1  0  0  0  0  0  0  0  0  0
    1.6015    2.3490   -1.5420 C   0  0  0  0  0  0  0  0  0  0  0  0
    1.4794   -2.2656    0.3067 C   0  0  0  0  0  0  0  0  0  0  0  0
    0.6884   -2.0505    1.4354 C   0  0  0  0  0  0  0  0  0  0  0  0
    0.9486   -2.9260   -0.8014 C   0  0  0  0  0  0  0  0  0  0  0  0
   -0.5214    2.7175   -0.5758 C   0  0  0  0  0  0  0  0  0  0  0  0
   -0.6333   -2.4957    1.4559 C   0  0  0  0  0  0  0  0  0  0  0  0
   -0.3731   -3.3713   -0.7808 C   0  0  0  0  0  0  0  0  0  0  0  0
   -1.1639   -3.1562    0.3479 C   0  0  0  0  0  0  0  0  0  0  0  0
   -1.9002    2.1750   -0.4813 C   0  0  0  0  0  0  0  0  0  0  0  0
   -1.4790   -2.2661    2.6627 C   0  0  0  0  0  0  0  0  0  0  0  0
   -2.2384    1.0065   -1.1638 C   0  0  0  0  0  0  0  0  0  0  0  0
   -2.8568    2.8326    0.2921 C   0  0  0  0  0  0  0  0  0  0  0  0
   -2.2309   -0.9612    2.6165 C   0  0  0  0  0  0  0  0  0  0  0  0
   -4.1515    2.3215    0.3831 C   0  0  0  0  0  0  0  0  0  0  0  0
   -3.5331    0.4954   -1.0728 C   0  0  0  0  0  0  0  0  0  0  0  0
   -4.4896    1.1530   -0.2994 C   0  0  0  0  0  0  0  0  0  0  0  0
   -2.2618   -4.4402   -1.7535 C   0  0  0  0  0  0  0  0  0  0  0  0
   -2.0610    0.0361    3.4917 C   0  0  0  0  0  0  0  0  0  0  0  0
    4.2948    1.8834   -1.5792 H   0  0  0  0  0  0  0  0  0  0  0  0
    4.6185    1.7631    1.4642 H   0  0  0  0  0  0  0  0  0  0  0  0
    2.0464    2.0078    0.5265 H   0  0  0  0  0  0  0  0  0  0  0  0
    4.9283   -0.6151   -0.4483 H   0  0  0  0  0  0  0  0  0  0  0  0
    2.5666   -0.1115    1.4425 H   0  0  0  0  0  0  0  0  0  0  0  0
    1.9185    1.9890   -2.5273 H   0  0  0  0  0  0  0  0  0  0  0  0
    1.6899    3.4414   -1.5517 H   0  0  0  0  0  0  0  0  0  0  0  0
    3.7135    3.7054    0.5289 H   0  0  0  0  0  0  0  0  0  0  0  0
    6.3166    1.1981   -0.7384 H   0  0  0  0  0  0  0  0  0  0  0  0
    4.6784   -0.3677    2.3727 H   0  0  0  0  0  0  0  0  0  0  0  0
    1.0998   -1.5530    2.3098 H   0  0  0  0  0  0  0  0  0  0  0  0
   -2.1979   -3.4769    0.4198 H   0  0  0  0  0  0  0  0  0  0  0  0
   -2.2060   -3.0816    2.7704 H   0  0  0  0  0  0  0  0  0  0  0  0
   -0.8549   -2.3226    3.5645 H   0  0  0  0  0  0  0  0  0  0  0  0
    2.6028   -2.7584   -1.7386 H   0  0  0  0  0  0  0  0  0  0  0  0
   -1.5135    0.4713   -1.7715 H   0  0  0  0  0  0  0  0  0  0  0  0
   -2.5992    3.7433    0.8275 H   0  0  0  0  0  0  0  0  0  0  0  0
   -2.9721   -0.8411    1.8307 H   0  0  0  0  0  0  0  0  0  0  0  0
   -2.5174   -4.9343   -2.6968 H   0  0  0  0  0  0  0  0  0  0  0  0
   -2.9429   -3.5891   -1.6473 H   0  0  0  0  0  0  0  0  0  0  0  0
   -2.3948   -5.1835   -0.9600 H   0  0  0  0  0  0  0  0  0  0  0  0
   -2.6440    0.9467    3.4064 H   0  0  0  0  0  0  0  0  0  0  0  0
   -1.3423   -0.0356    4.3004 H   0  0  0  0  0  0  0  0  0  0  0  0
   -4.6638    3.7589    1.5401 H   0  0  0  0  0  0  0  0  0  0  0  0
   -3.0638   -0.9683   -2.2166 H   0  0  0  0  0  0  0  0  0  0  0  0
   -5.8039   -0.1567   -0.7469 H   0  0  0  0  0  0  0  0  0  0  0  0
  1 15  1  0  0  0  0
  1 17  1  0  0  0  0
  2 13  1  0  0  0  0
  2 43  1  0  0  0  0
  3 14  1  0  0  0  0
  3 44  1  0  0  0  0
  4 17  1  0  0  0  0
  4 19  1  0  0  0  0
  5 16  1  0  0  0  0
  5 45  1  0  0  0  0
  6 18  1  0  0  0  0
  6 22  1  0  0  0  0
  7 21  1  0  0  0  0
  7 50  1  0  0  0  0
  8 24  1  0  0  0  0
  8 34  1  0  0  0  0
  9 22  2  0  0  0  0
 10 31  1  0  0  0  0
 10 59  1  0  0  0  0
 11 32  1  0  0  0  0
 11 60  1  0  0  0  0
 12 33  1  0  0  0  0
 12 61  1  0  0  0  0
 13 14  1  0  0  0  0
 13 15  1  0  0  0  0
 13 36  1  0  0  0  0
 14 16  1  0  0  0  0
 14 37  1  0  0  0  0
 15 18  1  0  0  0  0
 15 38  1  0  0  0  0
 16 17  1  0  0  0  0
 16 39  1  0  0  0  0
 17 40  1  0  0  0  0
 18 41  1  0  0  0  0
 18 42  1  0  0  0  0
 19 20  2  0  0  0  0
 19 21  1  0  0  0  0
 20 23  1  0  0  0  0
 20 46  1  0  0  0  0
 21 24  2  0  0  0  0
 22 26  1  0  0  0  0
 23 25  2  0  0  0  0
 23 27  1  0  0  0  0
 24 25  1  0  0  0  0
 25 47  1  0  0  0  0
 26 28  2  0  0  0  0
 26 29  1  0  0  0  0
 27 30  1  0  0  0  0
 27 48  1  0  0  0  0
 27 49  1  0  0  0  0
 28 32  1  0  0  0  0
 28 51  1  0  0  0  0
 29 31  2  0  0  0  0
 29 52  1  0  0  0  0
 30 35  2  0  0  0  0
 30 53  1  0  0  0  0
 31 33  1  0  0  0  0
 32 33  2  0  0  0  0
 34 54  1  0  0  0  0
 34 55  1  0  0  0  0
 34 56  1  0  0  0  0
 35 57  1  0  0  0  0
 35 58  1  0  0  0  0
M  END
> <PUBCHEM_COMPOUND_CID>
9917512

> <PUBCHEM_CONFORMER_RMSD>
1

> <PUBCHEM_CONFORMER_DIVERSEORDER>
1
69
26
154
99
78
14
50
173
149
129
111
110
100
136
13
142
163
40
115
103
145
32
73
157
195
75
44
33
27
135
52
174
123
170
38
188
124
121
151
172
80
192
190
167
108
95
130
86
175
102
194
162
127
153
184
54
160
97
177
41
128
61
185
138
133
53
57
76
82
155
181
4
16
22
6
19
196
122
141
91
85
8
43
132
113
171
106
71
81
3
93
120
176
186
56
165
39
21
58
143
164
104
105
169
125
72
161
182
2
147
187
60
59
112
159
109
17
28
90
51
34
126
114
67
158
117
25
62
144
31
179
55
63
116
36
152
96
180
101
94
47
168
20
18
15
148
183
48
137
193
37
89
88
166
10
74
131
9
139
5
189
92
11
83
29
191
65
30
98
64
42
107
45
66
77
79
84
146
156
70
140
119
49
23
197
118
46
87
178
68
24
12
134
150
35
7

> <PUBCHEM_MMFF94_PARTIAL_CHARGES>
49
1 -0.56
10 -0.53
11 -0.53
12 -0.53
13 0.28
14 0.28
15 0.28
16 0.28
17 0.56
18 0.28
19 0.08
2 -0.68
20 -0.15
21 0.08
22 0.63
23 -0.14
24 0.08
25 -0.15
26 0.09
27 0.28
28 -0.15
29 -0.15
3 -0.68
30 -0.29
31 0.08
32 0.08
33 0.08
34 0.28
35 -0.3
4 -0.36
43 0.4
44 0.4
45 0.4
46 0.15
47 0.15
5 -0.68
50 0.45
51 0.15
52 0.15
53 0.15
57 0.15
58 0.15
59 0.45
6 -0.43
60 0.45
61 0.45
7 -0.53
8 -0.36
9 -0.57

> <PUBCHEM_EFFECTIVE_ROTOR_COUNT>
10.2

> <PUBCHEM_PHARMACOPHORE_FEATURES>
18
1 1 acceptor
1 10 donor
1 11 donor
1 12 donor
1 2 acceptor
1 2 donor
1 3 acceptor
1 3 donor
1 35 hydrophobe
1 4 acceptor
1 5 acceptor
1 5 donor
1 7 donor
1 8 acceptor
1 9 acceptor
6 1 13 14 15 16 17 rings
6 19 20 21 23 24 25 rings
6 26 28 29 31 32 33 rings

> <PUBCHEM_HEAVY_ATOM_COUNT>
35

> <PUBCHEM_ATOM_DEF_STEREO_COUNT>
5

> <PUBCHEM_ATOM_UDEF_STEREO_COUNT>
0

> <PUBCHEM_BOND_DEF_STEREO_COUNT>
0

> <PUBCHEM_BOND_UDEF_STEREO_COUNT>
0

> <PUBCHEM_ISOTOPIC_ATOM_COUNT>
0

> <PUBCHEM_COMPONENT_COUNT>
1

> <PUBCHEM_CACTVS_TAUTO_COUNT>
42

> <PUBCHEM_CONFORMER_ID>
0097544800000001

> <PUBCHEM_MMFF94_ENERGY>
108.1661

> <PUBCHEM_FEATURE_SELFOVERLAP>
91.418

> <PUBCHEM_SHAPE_FINGERPRINT>
10032420 55 17175759540258652238
11513181 2 18272368625068200486
12156800 1 17763423560419556131
12788726 201 17543922655530210732
13402501 40 18113904861857780233
1361 2 18411980226728056399
14725015 67 17824258194407072801
15664445 248 17615397070708733309
15968369 153 18050859011192092679
161222 619 18191330224576236545
20587220 17 17625855706933142001
20737093 15 17906689793503990255
20764821 26 18041863756246527403
21133410 90 17487339489536280419
21197605 99 18335147522489652779
238 59 18265901258860276947
35225 105 17838373943986138617
392239 28 18115026290835244339
394071 54 17978234859940437585
5081480 168 17556052132673902726
6287921 2 18055343644091000927

> <PUBCHEM_SHAPE_MULTIPOLES>
649.85
9.65
5.83
2.27
4.44
2.73
-1.55
-8.11
-1.07
-1.62
2.2
-1.84
1.84
-0.9

> <PUBCHEM_SHAPE_SELFOVERLAP>
1387.459

> <PUBCHEM_SHAPE_VOLUME>
357

> <PUBCHEM_COORDINATE_TYPE>
2
5
10

$$$$
