84758
  -OEChem-10241303093D

 21 21  0     0  0  0  0  0  0999 V2000
   -3.2111   -0.5164    0.0008 Br  0  0  0  0  0  0  0  0  0  0  0  0
    2.6980    0.3448   -0.0026 O   0  0  0  0  0  0  0  0  0  0  0  0
   -0.9717   -2.4859   -0.0054 O   0  0  0  0  0  0  0  0  0  0  0  0
    0.5633    1.2640   -0.0003 N   0  0  0  0  0  0  0  0  0  0  0  0
    0.8867   -1.0937    0.0013 N   0  0  0  0  0  0  0  0  0  0  0  0
   -0.8259    1.0842    0.0009 C   0  0  0  0  0  0  0  0  0  0  0  0
    1.4718    0.1892   -0.0005 C   0  0  0  0  0  0  0  0  0  0  0  0
   -1.3655   -0.1513    0.0006 C   0  0  0  0  0  0  0  0  0  0  0  0
   -0.4838   -1.3557   -0.0011 C   0  0  0  0  0  0  0  0  0  0  0  0
    1.1213    2.6204   -0.0017 C   0  0  0  0  0  0  0  0  0  0  0  0
   -1.6724    2.3427    0.0022 C   0  0  0  0  0  0  0  0  0  0  0  0
    1.7892   -2.2423    0.0059 C   0  0  0  0  0  0  0  0  0  0  0  0
    0.7939    3.1499   -0.9013 H   0  0  0  0  0  0  0  0  0  0  0  0
    2.2147    2.6117   -0.0031 H   0  0  0  0  0  0  0  0  0  0  0  0
    0.7963    3.1507    0.8983 H   0  0  0  0  0  0  0  0  0  0  0  0
   -1.4688    2.9443   -0.8900 H   0  0  0  0  0  0  0  0  0  0  0  0
   -1.4661    2.9444    0.8936 H   0  0  0  0  0  0  0  0  0  0  0  0
   -2.7489    2.1616    0.0040 H   0  0  0  0  0  0  0  0  0  0  0  0
    1.2612   -3.1981    0.0348 H   0  0  0  0  0  0  0  0  0  0  0  0
    2.4474   -2.1679    0.8777 H   0  0  0  0  0  0  0  0  0  0  0  0
    2.4102   -2.2002   -0.8949 H   0  0  0  0  0  0  0  0  0  0  0  0
  1  8  1  0  0  0  0
  2  7  2  0  0  0  0
  3  9  2  0  0  0  0
  4  6  1  0  0  0  0
  4  7  1  0  0  0  0
  4 10  1  0  0  0  0
  5  7  1  0  0  0  0
  5  9  1  0  0  0  0
  5 12  1  0  0  0  0
  6  8  2  0  0  0  0
  6 11  1  0  0  0  0
  8  9  1  0  0  0  0
 10 13  1  0  0  0  0
 10 14  1  0  0  0  0
 10 15  1  0  0  0  0
 11 16  1  0  0  0  0
 11 17  1  0  0  0  0
 11 18  1  0  0  0  0
 12 19  1  0  0  0  0
 12 20  1  0  0  0  0
 12 21  1  0  0  0  0
M  END
> <PUBCHEM_COMPOUND_CID>
84758

> <PUBCHEM_CONFORMER_RMSD>
0.4

> <PUBCHEM_CONFORMER_DIVERSEORDER>
1

> <PUBCHEM_MMFF94_PARTIAL_CHARGES>
12
1 -0.11
10 0.3
11 0.14
12 0.3
2 -0.57
3 -0.57
4 -0.47
5 -0.42
6 -0.03
7 0.69
8 0.12
9 0.62

> <PUBCHEM_EFFECTIVE_ROTOR_COUNT>
0

> <PUBCHEM_PHARMACOPHORE_FEATURES>
4
1 1 hydrophobe
1 2 acceptor
1 3 acceptor
6 4 5 6 7 8 9 rings

> <PUBCHEM_HEAVY_ATOM_COUNT>
12

> <PUBCHEM_ATOM_DEF_STEREO_COUNT>
0

> <PUBCHEM_ATOM_UDEF_STEREO_COUNT>
0

> <PUBCHEM_BOND_DEF_STEREO_COUNT>
0

> <PUBCHEM_BOND_UDEF_STEREO_COUNT>
0

> <PUBCHEM_ISOTOPIC_ATOM_COUNT>
0

> <PUBCHEM_COMPONENT_COUNT>
1

> <PUBCHEM_CACTVS_TAUTO_COUNT>
1

> <PUBCHEM_CONFORMER_ID>
00014B1600000001

> <PUBCHEM_MMFF94_ENERGY>
27.9176

> <PUBCHEM_FEATURE_SELFOVERLAP>
20.297

> <PUBCHEM_SHAPE_FINGERPRINT>
10967382 1 18338236093121479397
11206711 2 18409452466327834085
13140716 1 18122342646927065563
16945 1 18410574023853629573
193761 8 18266741277074737637
20588541 1 18410015476236626287
21040471 1 18338797806192878244
21501502 16 18265899042604215953
2334 1 17762338419483248609
23526114 1 18266741272806072797
23552423 10 18117846503415836942
23559900 14 17548997993058247516
241688 4 18122344575383205603
2748010 2 18267020544443455053
5084963 1 18131071528206563697
528886 8 18195523929021726649
66348 1 18410573963729401153

> <PUBCHEM_SHAPE_MULTIPOLES>
231.2
3.44
3.04
0.6
1.07
0.55
0
-0.61
0
-0.38
0
0.07
0
0

> <PUBCHEM_SHAPE_SELFOVERLAP>
458.93

> <PUBCHEM_SHAPE_VOLUME>
141.7

> <PUBCHEM_COORDINATE_TYPE>
2
5
10

$$$$
