76218
  -OEChem-10241302473D

 13 13  0     0  0  0  0  0  0999 V2000
   -1.8622    0.0000   -0.1725 O   0  0  0  0  0  0  0  0  0  0  0  0
   -0.5458    0.0001    0.4145 C   0  0  0  0  0  0  0  0  0  0  0  0
    0.4329    1.0636   -0.1254 C   0  0  0  0  0  0  0  0  0  0  0  0
    0.4327   -1.0637   -0.1253 C   0  0  0  0  0  0  0  0  0  0  0  0
    1.5424    0.0000    0.0087 C   0  0  0  0  0  0  0  0  0  0  0  0
   -0.6136    0.0033    1.5101 H   0  0  0  0  0  0  0  0  0  0  0  0
    0.5601    1.9522    0.4983 H   0  0  0  0  0  0  0  0  0  0  0  0
    0.2340    1.3756   -1.1571 H   0  0  0  0  0  0  0  0  0  0  0  0
    0.2337   -1.3760   -1.1569 H   0  0  0  0  0  0  0  0  0  0  0  0
    0.5595   -1.9521    0.4986 H   0  0  0  0  0  0  0  0  0  0  0  0
    2.2999   -0.0001   -0.7787 H   0  0  0  0  0  0  0  0  0  0  0  0
    2.0392   -0.0001    0.9857 H   0  0  0  0  0  0  0  0  0  0  0  0
   -2.2842   -0.8098    0.1615 H   0  0  0  0  0  0  0  0  0  0  0  0
  1  2  1  0  0  0  0
  1 13  1  0  0  0  0
  2  3  1  0  0  0  0
  2  4  1  0  0  0  0
  2  6  1  0  0  0  0
  3  5  1  0  0  0  0
  3  7  1  0  0  0  0
  3  8  1  0  0  0  0
  4  5  1  0  0  0  0
  4  9  1  0  0  0  0
  4 10  1  0  0  0  0
  5 11  1  0  0  0  0
  5 12  1  0  0  0  0
M  END
> <PUBCHEM_COMPOUND_CID>
76218

> <PUBCHEM_CONFORMER_RMSD>
0.4

> <PUBCHEM_CONFORMER_DIVERSEORDER>
1
2

> <PUBCHEM_MMFF94_PARTIAL_CHARGES>
3
1 -0.66
13 0.4
2 0.26

> <PUBCHEM_EFFECTIVE_ROTOR_COUNT>
0.8

> <PUBCHEM_PHARMACOPHORE_FEATURES>
3
1 1 acceptor
1 1 donor
4 2 3 4 5 rings

> <PUBCHEM_HEAVY_ATOM_COUNT>
5

> <PUBCHEM_ATOM_DEF_STEREO_COUNT>
0

> <PUBCHEM_ATOM_UDEF_STEREO_COUNT>
0

> <PUBCHEM_BOND_DEF_STEREO_COUNT>
0

> <PUBCHEM_BOND_UDEF_STEREO_COUNT>
0

> <PUBCHEM_ISOTOPIC_ATOM_COUNT>
0

> <PUBCHEM_COMPONENT_COUNT>
1

> <PUBCHEM_CACTVS_TAUTO_COUNT>
1

> <PUBCHEM_CONFORMER_ID>
000129BA00000001

> <PUBCHEM_MMFF94_ENERGY>
9.0429

> <PUBCHEM_FEATURE_SELFOVERLAP>
15.223

> <PUBCHEM_SHAPE_FINGERPRINT>
139733 1 8934700193936611346
20096714 4 18264773335992182548
21015797 1 9437959843082240568
21040471 1 18267022936830007064
29004967 10 18335710416033239371
5943 1 15148548102093055506

> <PUBCHEM_SHAPE_MULTIPOLES>
97.03
1.76
1.08
0.64
0.48
0
0.02
0
-0.08
-0.19
-0.06
0
0
0

> <PUBCHEM_SHAPE_SELFOVERLAP>
181.722

> <PUBCHEM_SHAPE_VOLUME>
62.6

> <PUBCHEM_COORDINATE_TYPE>
2
5
10

$$$$
