69012
  -OEChem-10241303033D

 26 26  0     1  0  0  0  0  0999 V2000
    4.3883    0.9817   -0.1944 S   0  0  0  0  0  0  0  0  0  0  0  0
    2.5661   -0.0599   -0.3404 P   0  0  2  0  0  0  0  0  0  0  0  0
    1.3499    0.9821   -0.0901 O   0  0  0  0  0  0  0  0  0  0  0  0
    2.4364   -1.1071    0.8968 O   0  0  0  0  0  0  0  0  0  0  0  0
    2.4791   -0.7408   -1.6823 O   0  0  0  0  0  0  0  0  0  0  0  0
   -4.9089    0.6014    0.1775 O   0  5  0  0  0  0  0  0  0  0  0  0
   -4.4124   -1.4988   -0.2242 O   0  0  0  0  0  0  0  0  0  0  0  0
   -4.0692   -0.3076   -0.0300 N   0  3  0  0  0  0  0  0  0  0  0  0
    0.0182    0.6650   -0.0754 C   0  0  0  0  0  0  0  0  0  0  0  0
   -0.9250    1.6617    0.1521 C   0  0  0  0  0  0  0  0  0  0  0  0
   -0.3803   -0.6506   -0.2885 C   0  0  0  0  0  0  0  0  0  0  0  0
   -2.6882    0.0220   -0.0459 C   0  0  0  0  0  0  0  0  0  0  0  0
   -2.2820    1.3392    0.1671 C   0  0  0  0  0  0  0  0  0  0  0  0
   -1.7373   -0.9729   -0.2737 C   0  0  0  0  0  0  0  0  0  0  0  0
    5.6688   -0.2748   -0.3823 C   0  0  0  0  0  0  0  0  0  0  0  0
    2.4964   -0.6406    2.2337 C   0  0  0  0  0  0  0  0  0  0  0  0
   -0.6124    2.6887    0.3185 H   0  0  0  0  0  0  0  0  0  0  0  0
    0.3192   -1.4571   -0.4726 H   0  0  0  0  0  0  0  0  0  0  0  0
   -2.9944    2.1400    0.3479 H   0  0  0  0  0  0  0  0  0  0  0  0
   -2.0175   -2.0094   -0.4439 H   0  0  0  0  0  0  0  0  0  0  0  0
    5.5743   -0.7612   -1.3563 H   0  0  0  0  0  0  0  0  0  0  0  0
    5.5706   -1.0271    0.4042 H   0  0  0  0  0  0  0  0  0  0  0  0
    6.6555    0.1891   -0.3102 H   0  0  0  0  0  0  0  0  0  0  0  0
    1.9018    0.2671    2.3611 H   0  0  0  0  0  0  0  0  0  0  0  0
    3.5355   -0.4445    2.5085 H   0  0  0  0  0  0  0  0  0  0  0  0
    2.0987   -1.4177    2.8911 H   0  0  0  0  0  0  0  0  0  0  0  0
  1  2  1  0  0  0  0
  1 15  1  0  0  0  0
  2  3  1  0  0  0  0
  2  4  1  0  0  0  0
  2  5  2  0  0  0  0
  3  9  1  0  0  0  0
  4 16  1  0  0  0  0
  6  8  1  0  0  0  0
  7  8  2  0  0  0  0
  8 12  1  0  0  0  0
  9 10  2  0  0  0  0
  9 11  1  0  0  0  0
 10 13  1  0  0  0  0
 10 17  1  0  0  0  0
 11 14  2  0  0  0  0
 11 18  1  0  0  0  0
 12 13  2  0  0  0  0
 12 14  1  0  0  0  0
 13 19  1  0  0  0  0
 14 20  1  0  0  0  0
 15 21  1  0  0  0  0
 15 22  1  0  0  0  0
 15 23  1  0  0  0  0
 16 24  1  0  0  0  0
 16 25  1  0  0  0  0
 16 26  1  0  0  0  0
M  CHG  2   6  -1   8   1
M  END
> <PUBCHEM_COMPOUND_CID>
69012

> <PUBCHEM_CONFORMER_RMSD>
0.6

> <PUBCHEM_CONFORMER_DIVERSEORDER>
1
37
26
19
31
28
10
27
16
38
25
15
17
5
14
39
34
32
21
3
23
20
30
29
7
35
33
6
8
18
24
13
36
9
4
40
2
22
12
11

> <PUBCHEM_MMFF94_PARTIAL_CHARGES>
20
1 -0.48
10 -0.15
11 -0.15
12 0.13
13 -0.15
14 -0.15
15 0.23
16 0.28
17 0.15
18 0.15
19 0.15
2 1.49
20 0.15
3 -0.35
4 -0.55
5 -0.7
6 -0.52
7 -0.52
8 0.91
9 0.08

> <PUBCHEM_EFFECTIVE_ROTOR_COUNT>
5

> <PUBCHEM_PHARMACOPHORE_FEATURES>
5
1 5 acceptor
1 6 acceptor
1 6 anion
1 7 acceptor
6 9 10 11 12 13 14 rings

> <PUBCHEM_HEAVY_ATOM_COUNT>
16

> <PUBCHEM_ATOM_DEF_STEREO_COUNT>
0

> <PUBCHEM_ATOM_UDEF_STEREO_COUNT>
1

> <PUBCHEM_BOND_DEF_STEREO_COUNT>
0

> <PUBCHEM_BOND_UDEF_STEREO_COUNT>
0

> <PUBCHEM_ISOTOPIC_ATOM_COUNT>
0

> <PUBCHEM_COMPONENT_COUNT>
1

> <PUBCHEM_CACTVS_TAUTO_COUNT>
1

> <PUBCHEM_CONFORMER_ID>
00010D9400000001

> <PUBCHEM_MMFF94_ENERGY>
34.5856

> <PUBCHEM_FEATURE_SELFOVERLAP>
25.453

> <PUBCHEM_SHAPE_FINGERPRINT>
12032990 46 18343310288213491743
12236239 1 18113337509768277252
13760787 19 17967529069490795987
14115302 16 17531537576171329662
14252887 29 18272943738252510342
17834072 33 18333448738185137218
200 152 16877942732762037524
20510252 161 18059298660446567961
20645477 70 15792005637014410074
21267235 1 18410583906531251206
22485316 2 18040711468076409681
23402539 116 18342453755269477189
23557571 272 18339647746046154676
23559900 14 18129383705017492102
300161 21 17968088720877633437
474 4 17605281864302388092
7364860 26 18057322992675837504

> <PUBCHEM_SHAPE_MULTIPOLES>
302.64
10.01
1.4
1.15
1.43
0.2
0.47
-0.86
-0.83
-0.48
0.1
1.26
-0.4
-0.53

> <PUBCHEM_SHAPE_SELFOVERLAP>
587.347

> <PUBCHEM_SHAPE_VOLUME>
186.1

> <PUBCHEM_COORDINATE_TYPE>
2
5
10

$$$$
