65729
  -OEChem-10241303123D

 16 17  0     0  0  0  0  0  0999 V2000
   -1.5527    0.8484    0.0001 S   0  0  0  0  0  0  0  0  0  0  0  0
   -1.8308   -0.7698   -0.0013 O   0  0  0  0  0  0  0  0  0  0  0  0
   -1.9459    1.4062    1.2756 O   0  0  0  0  0  0  0  0  0  0  0  0
   -1.9452    1.4082   -1.2747 O   0  0  0  0  0  0  0  0  0  0  0  0
   -0.7342   -2.8058   -0.0005 O   0  0  0  0  0  0  0  0  0  0  0  0
    0.1614    0.6471    0.0005 C   0  0  0  0  0  0  0  0  0  0  0  0
    0.4573   -0.7107    0.0005 C   0  0  0  0  0  0  0  0  0  0  0  0
    1.1200    1.6351   -0.0002 C   0  0  0  0  0  0  0  0  0  0  0  0
   -0.7321   -1.5906   -0.0001 C   0  0  0  0  0  0  0  0  0  0  0  0
    1.7749   -1.1317    0.0006 C   0  0  0  0  0  0  0  0  0  0  0  0
    2.4510    1.2170   -0.0004 C   0  0  0  0  0  0  0  0  0  0  0  0
    2.7762   -0.1534   -0.0001 C   0  0  0  0  0  0  0  0  0  0  0  0
    0.8628    2.6873   -0.0005 H   0  0  0  0  0  0  0  0  0  0  0  0
    2.0370   -2.1841    0.0006 H   0  0  0  0  0  0  0  0  0  0  0  0
    3.2484    1.9555   -0.0010 H   0  0  0  0  0  0  0  0  0  0  0  0
    3.8208   -0.4542   -0.0002 H   0  0  0  0  0  0  0  0  0  0  0  0
  1  2  1  0  0  0  0
  1  3  2  0  0  0  0
  1  4  2  0  0  0  0
  1  6  1  0  0  0  0
  2  9  1  0  0  0  0
  5  9  2  0  0  0  0
  6  7  1  0  0  0  0
  6  8  2  0  0  0  0
  7  9  1  0  0  0  0
  7 10  2  0  0  0  0
  8 11  1  0  0  0  0
  8 13  1  0  0  0  0
 10 12  1  0  0  0  0
 10 14  1  0  0  0  0
 11 12  2  0  0  0  0
 11 15  1  0  0  0  0
 12 16  1  0  0  0  0
M  END
> <PUBCHEM_COMPOUND_CID>
65729

> <PUBCHEM_CONFORMER_RMSD>
0.4

> <PUBCHEM_CONFORMER_DIVERSEORDER>
1

> <PUBCHEM_MMFF94_PARTIAL_CHARGES>
16
1 1.49
10 -0.15
11 -0.15
12 -0.15
13 0.15
14 0.15
15 0.15
16 0.15
2 -0.33
3 -0.65
4 -0.65
5 -0.57
6 -0.01
7 0.09
8 -0.15
9 0.63

> <PUBCHEM_EFFECTIVE_ROTOR_COUNT>
0.2

> <PUBCHEM_PHARMACOPHORE_FEATURES>
5
1 3 acceptor
1 4 acceptor
1 5 acceptor
5 1 2 6 7 9 rings
6 6 7 8 10 11 12 rings

> <PUBCHEM_HEAVY_ATOM_COUNT>
12

> <PUBCHEM_ATOM_DEF_STEREO_COUNT>
0

> <PUBCHEM_ATOM_UDEF_STEREO_COUNT>
0

> <PUBCHEM_BOND_DEF_STEREO_COUNT>
0

> <PUBCHEM_BOND_UDEF_STEREO_COUNT>
0

> <PUBCHEM_ISOTOPIC_ATOM_COUNT>
0

> <PUBCHEM_COMPONENT_COUNT>
1

> <PUBCHEM_CACTVS_TAUTO_COUNT>
1

> <PUBCHEM_CONFORMER_ID>
000100C100000001

> <PUBCHEM_MMFF94_ENERGY>
21.5121

> <PUBCHEM_FEATURE_SELFOVERLAP>
25.457

> <PUBCHEM_SHAPE_FINGERPRINT>
1 1 18119802517474392607
11206711 2 18193276518970605836
12423570 1 13529733310045335092
14614273 12 18191295190243055684
15775835 57 18261116248680750452
16945 1 18266458887438700548
193761 8 18266459999951326720
19973954 147 18268152139862066928
21040471 1 18410855451854803268
23552423 10 17972597959712654550
23559900 14 18271259244728522110
241688 4 17903354049925947090
25 1 17829598470875475101
2748010 2 18337956679744953670
5084963 1 18341604910696716809
528886 8 18267864982380009704
63268167 104 18268142059315496824

> <PUBCHEM_SHAPE_MULTIPOLES>
227.33
3.28
2.28
0.8
1.15
1.06
0
-0.83
0
-0.66
0
-0.39
-0.31
0

> <PUBCHEM_SHAPE_SELFOVERLAP>
487.676

> <PUBCHEM_SHAPE_VOLUME>
126.7

> <PUBCHEM_COORDINATE_TYPE>
2
5
10

$$$$
