69605
  -OEChem-10241302503D

 10 10  0     0  0  0  0  0  0999 V2000
   -2.3338   -0.0002    0.0001 F   0  0  0  0  0  0  0  0  0  0  0  0
    1.0854    1.2049    0.0000 N   0  0  0  0  0  0  0  0  0  0  0  0
    1.0857   -1.2048    0.0000 N   0  0  0  0  0  0  0  0  0  0  0  0
   -0.9980    0.0000    0.0001 C   0  0  0  0  0  0  0  0  0  0  0  0
   -0.2633    1.1679   -0.0001 C   0  0  0  0  0  0  0  0  0  0  0  0
   -0.2630   -1.1680   -0.0001 C   0  0  0  0  0  0  0  0  0  0  0  0
    1.6870    0.0001    0.0001 C   0  0  0  0  0  0  0  0  0  0  0  0
   -0.7540    2.1352   -0.0002 H   0  0  0  0  0  0  0  0  0  0  0  0
   -0.7536   -2.1354   -0.0002 H   0  0  0  0  0  0  0  0  0  0  0  0
    2.7701    0.0002    0.0002 H   0  0  0  0  0  0  0  0  0  0  0  0
  1  4  1  0  0  0  0
  2  5  2  0  0  0  0
  2  7  1  0  0  0  0
  3  6  1  0  0  0  0
  3  7  2  0  0  0  0
  4  5  1  0  0  0  0
  4  6  2  0  0  0  0
  5  8  1  0  0  0  0
  6  9  1  0  0  0  0
  7 10  1  0  0  0  0
M  END
> <PUBCHEM_COMPOUND_CID>
69605

> <PUBCHEM_CONFORMER_RMSD>
0.4

> <PUBCHEM_CONFORMER_DIVERSEORDER>
1

> <PUBCHEM_MMFF94_PARTIAL_CHARGES>
10
1 -0.19
10 0.15
2 -0.62
3 -0.62
4 0.19
5 0.16
6 0.16
7 0.47
8 0.15
9 0.15

> <PUBCHEM_EFFECTIVE_ROTOR_COUNT>
0

> <PUBCHEM_PHARMACOPHORE_FEATURES>
3
1 2 acceptor
3 2 3 7 cation
6 2 3 4 5 6 7 rings

> <PUBCHEM_HEAVY_ATOM_COUNT>
7

> <PUBCHEM_ATOM_DEF_STEREO_COUNT>
0

> <PUBCHEM_ATOM_UDEF_STEREO_COUNT>
0

> <PUBCHEM_BOND_DEF_STEREO_COUNT>
0

> <PUBCHEM_BOND_UDEF_STEREO_COUNT>
0

> <PUBCHEM_ISOTOPIC_ATOM_COUNT>
0

> <PUBCHEM_COMPONENT_COUNT>
1

> <PUBCHEM_CACTVS_TAUTO_COUNT>
1

> <PUBCHEM_CONFORMER_ID>
00010FE500000001

> <PUBCHEM_MMFF94_ENERGY>
13.6387

> <PUBCHEM_FEATURE_SELFOVERLAP>
15.223

> <PUBCHEM_SHAPE_FINGERPRINT>
20096714 4 18339361984295871690
21040471 1 18266458904492105600
23552423 10 17684946699745496678
29004967 10 18334019375797624769

> <PUBCHEM_SHAPE_MULTIPOLES>
126.82
2.08
1.37
0.57
0.59
0
0
0
0
-0.24
0
-0.01
0
0

> <PUBCHEM_SHAPE_SELFOVERLAP>
261.898

> <PUBCHEM_SHAPE_VOLUME>
72.5

> <PUBCHEM_COORDINATE_TYPE>
2
5
10

$$$$
