5821911
  -OEChem-10241302493D

 28 29  0     0  0  0  0  0  0999 V2000
    4.5868    1.9018   -1.1725 Cl  0  0  0  0  0  0  0  0  0  0  0  0
    2.1923    1.1657    0.4309 S   0  0  0  0  0  0  0  0  0  0  0  0
   -1.7627   -2.7959   -0.3671 O   0  0  0  0  0  0  0  0  0  0  0  0
   -3.1739    2.0306    0.9437 O   0  5  0  0  0  0  0  0  0  0  0  0
   -1.8040    2.6401   -0.6370 O   0  0  0  0  0  0  0  0  0  0  0  0
   -0.4013   -1.1425    0.6835 N   0  0  0  0  0  0  0  0  0  0  0  0
   -2.2435   -0.4671   -0.6416 N   0  0  0  0  0  0  0  0  0  0  0  0
   -1.1679    1.0856    0.8247 N   0  0  0  0  0  0  0  0  0  0  0  0
    3.8775   -0.5759   -0.4688 N   0  0  0  0  0  0  0  0  0  0  0  0
   -2.0884    1.9417    0.3490 N   0  3  0  0  0  0  0  0  0  0  0  0
   -0.4437   -2.4557    0.0512 C   0  0  0  0  0  0  0  0  0  0  0  0
   -1.2738   -0.1131    0.3072 C   0  0  0  0  0  0  0  0  0  0  0  0
    0.7255   -0.8918    1.5756 C   0  0  0  0  0  0  0  0  0  0  0  0
   -2.2757   -1.7970   -1.2451 C   0  0  0  0  0  0  0  0  0  0  0  0
    1.9209   -0.4815    0.7708 C   0  0  0  0  0  0  0  0  0  0  0  0
   -3.1745    0.5061   -1.2032 C   0  0  0  0  0  0  0  0  0  0  0  0
    2.8991   -1.2609    0.2251 C   0  0  0  0  0  0  0  0  0  0  0  0
    3.6072    0.7099   -0.4264 C   0  0  0  0  0  0  0  0  0  0  0  0
    0.2264   -2.4879   -0.8161 H   0  0  0  0  0  0  0  0  0  0  0  0
   -0.1222   -3.2345    0.7505 H   0  0  0  0  0  0  0  0  0  0  0  0
    0.9650   -1.7994    2.1446 H   0  0  0  0  0  0  0  0  0  0  0  0
    0.4758   -0.1385    2.3329 H   0  0  0  0  0  0  0  0  0  0  0  0
   -3.3028   -2.0947   -1.4809 H   0  0  0  0  0  0  0  0  0  0  0  0
   -1.7016   -1.8029   -2.1794 H   0  0  0  0  0  0  0  0  0  0  0  0
   -2.7320    1.2283   -1.8917 H   0  0  0  0  0  0  0  0  0  0  0  0
   -4.0031    0.8066   -0.5609 H   0  0  0  0  0  0  0  0  0  0  0  0
   -3.7736   -0.0438   -1.9504 H   0  0  0  0  0  0  0  0  0  0  0  0
    2.9613   -2.3387    0.2943 H   0  0  0  0  0  0  0  0  0  0  0  0
  1 18  1  0  0  0  0
  2 15  1  0  0  0  0
  2 18  1  0  0  0  0
  3 11  1  0  0  0  0
  3 14  1  0  0  0  0
  4 10  1  0  0  0  0
  5 10  2  0  0  0  0
  6 11  1  0  0  0  0
  6 12  1  0  0  0  0
  6 13  1  0  0  0  0
  7 12  1  0  0  0  0
  7 14  1  0  0  0  0
  7 16  1  0  0  0  0
  8 10  1  0  0  0  0
  8 12  2  0  0  0  0
  9 17  1  0  0  0  0
  9 18  2  0  0  0  0
 11 19  1  0  0  0  0
 11 20  1  0  0  0  0
 13 15  1  0  0  0  0
 13 21  1  0  0  0  0
 13 22  1  0  0  0  0
 14 23  1  0  0  0  0
 14 24  1  0  0  0  0
 15 17  2  0  0  0  0
 16 25  1  0  0  0  0
 16 26  1  0  0  0  0
 16 27  1  0  0  0  0
 17 28  1  0  0  0  0
M  CHG  2   4  -1  10   1
M  END
> <PUBCHEM_COMPOUND_CID>
5821911

> <PUBCHEM_CONFORMER_RMSD>
0.6

> <PUBCHEM_CONFORMER_DIVERSEORDER>
1
9
10
15
6
7
16
17
11
5
12
8
13
3
4
2
14

> <PUBCHEM_MMFF94_PARTIAL_CHARGES>
19
1 -0.12
10 1.09
11 0.65
12 0.55
13 0.55
14 0.65
15 -0.14
16 0.37
17 0.08
18 0.5
2 -0.08
28 0.15
3 -0.56
4 -0.52
5 -0.52
6 -0.79
7 -0.79
8 -0.5
9 -0.57

> <PUBCHEM_EFFECTIVE_ROTOR_COUNT>
4

> <PUBCHEM_PHARMACOPHORE_FEATURES>
7
1 3 acceptor
1 4 acceptor
1 5 acceptor
1 9 acceptor
4 6 7 8 12 cation
5 2 9 15 17 18 rings
6 3 6 7 11 12 14 rings

> <PUBCHEM_HEAVY_ATOM_COUNT>
18

> <PUBCHEM_ATOM_DEF_STEREO_COUNT>
0

> <PUBCHEM_ATOM_UDEF_STEREO_COUNT>
0

> <PUBCHEM_BOND_DEF_STEREO_COUNT>
1

> <PUBCHEM_BOND_UDEF_STEREO_COUNT>
0

> <PUBCHEM_ISOTOPIC_ATOM_COUNT>
0

> <PUBCHEM_COMPONENT_COUNT>
1

> <PUBCHEM_CACTVS_TAUTO_COUNT>
1

> <PUBCHEM_CONFORMER_ID>
0058D5D700000001

> <PUBCHEM_MMFF94_ENERGY>
72.8641

> <PUBCHEM_FEATURE_SELFOVERLAP>
35.611

> <PUBCHEM_SHAPE_FINGERPRINT>
10498660 4 18336539538190172004
11640471 11 17895182312273596958
12173636 292 18341606001713277789
12491281 212 18335143089814208826
14123250 116 18410019857356826616
14251745 187 18266176309162355728
14790565 3 18341334405810882945
15502708 8 18272369810357568163
15775835 57 18335424504471603168
16752209 62 18199727199288189893
16945 1 18341599438924427179
17134986 127 18049439249279966493
18186145 218 17822018584179818234
18219364 16 15936691566235648636
18785283 64 17836666123171237835
20300324 65 18267025144928552524
20361792 2 14333131901064921506
20645476 183 18266172842543349835
20871999 31 18202846569083426388
21421566 26 17771629232782715126
21501502 16 18410009949214953690
21524375 3 18263643957182825667
22620623 9 17346309436514306503
22802520 49 18059005202379083138
23419403 2 16159920099148471635
235170 7 17487644007229416004
23557571 272 17983274195932760746
23559900 14 17845926313881319570
238 59 17320666424067503684
27216 239 14056995096167146142
2748010 2 17838025428859857531
3060560 45 17906729207015299076
3082319 5 18413108377171427246
4028521 119 18260543459194598564
474 4 17677054650363124668
526903 126 18190457349561176248
59027123 10 18411144645351981894
7615 1 18188475948383132890
7832392 63 18410576154606002776
81228 2 18268416009715162315
9981440 41 17898846018736482960

> <PUBCHEM_SHAPE_MULTIPOLES>
333.64
6.9
2.84
1.23
6.12
0.19
0
2.88
-2.76
-1.76
-0.2
-0.14
0.05
-1.21

> <PUBCHEM_SHAPE_SELFOVERLAP>
677.209

> <PUBCHEM_SHAPE_VOLUME>
197.3

> <PUBCHEM_COORDINATE_TYPE>
2
5
10

$$$$
107646
  -OEChem-10241302493D

 28 29  0     0  0  0  0  0  0999 V2000
    4.5700    1.9085   -1.1836 Cl  0  0  0  0  0  0  0  0  0  0  0  0
    2.1821    1.1718    0.4295 S   0  0  0  0  0  0  0  0  0  0  0  0
   -1.7405   -2.7994   -0.3742 O   0  0  0  0  0  0  0  0  0  0  0  0
   -3.1875    2.0157    0.9393 O   0  5  0  0  0  0  0  0  0  0  0  0
   -1.8119    2.6369   -0.6320 O   0  0  0  0  0  0  0  0  0  0  0  0
   -0.3949   -1.1405    0.6881 N   0  0  0  0  0  0  0  0  0  0  0  0
   -2.2332   -0.4728   -0.6463 N   0  0  0  0  0  0  0  0  0  0  0  0
   -1.1753    1.0828    0.8298 N   0  0  0  0  0  0  0  0  0  0  0  0
    3.8708   -0.5683   -0.4667 N   0  0  0  0  0  0  0  0  0  0  0  0
   -2.0981    1.9345    0.3507 N   0  3  0  0  0  0  0  0  0  0  0  0
   -0.4259   -2.4525    0.0526 C   0  0  0  0  0  0  0  0  0  0  0  0
   -1.2712   -0.1154    0.3091 C   0  0  0  0  0  0  0  0  0  0  0  0
    0.7252   -0.8853    1.5874 C   0  0  0  0  0  0  0  0  0  0  0  0
   -2.2541   -1.8014   -1.2529 C   0  0  0  0  0  0  0  0  0  0  0  0
    1.9181   -0.4743    0.7769 C   0  0  0  0  0  0  0  0  0  0  0  0
   -3.1666    0.4962   -1.2111 C   0  0  0  0  0  0  0  0  0  0  0  0
    2.8965   -1.2532    0.2329 C   0  0  0  0  0  0  0  0  0  0  0  0
    3.5964    0.7168   -0.4294 C   0  0  0  0  0  0  0  0  0  0  0  0
    0.2490   -2.4791   -0.8112 H   0  0  0  0  0  0  0  0  0  0  0  0
   -0.1039   -3.2310    0.7520 H   0  0  0  0  0  0  0  0  0  0  0  0
    0.9665   -1.7911    2.1582 H   0  0  0  0  0  0  0  0  0  0  0  0
    0.4719   -0.1294    2.3408 H   0  0  0  0  0  0  0  0  0  0  0  0
   -3.2780   -2.1046   -1.4954 H   0  0  0  0  0  0  0  0  0  0  0  0
   -1.6746   -1.8017   -2.1838 H   0  0  0  0  0  0  0  0  0  0  0  0
   -2.7243    1.2226   -1.8953 H   0  0  0  0  0  0  0  0  0  0  0  0
   -4.0007    0.7904   -0.5729 H   0  0  0  0  0  0  0  0  0  0  0  0
   -3.7581   -0.0554   -1.9631 H   0  0  0  0  0  0  0  0  0  0  0  0
    2.9624   -2.3304    0.3070 H   0  0  0  0  0  0  0  0  0  0  0  0
  1 18  1  0  0  0  0
  2 15  1  0  0  0  0
  2 18  1  0  0  0  0
  3 11  1  0  0  0  0
  3 14  1  0  0  0  0
  4 10  1  0  0  0  0
  5 10  2  0  0  0  0
  6 11  1  0  0  0  0
  6 12  1  0  0  0  0
  6 13  1  0  0  0  0
  7 12  1  0  0  0  0
  7 14  1  0  0  0  0
  7 16  1  0  0  0  0
  8 10  1  0  0  0  0
  8 12  2  0  0  0  0
  9 17  1  0  0  0  0
  9 18  2  0  0  0  0
 11 19  1  0  0  0  0
 11 20  1  0  0  0  0
 13 15  1  0  0  0  0
 13 21  1  0  0  0  0
 13 22  1  0  0  0  0
 14 23  1  0  0  0  0
 14 24  1  0  0  0  0
 15 17  2  0  0  0  0
 16 25  1  0  0  0  0
 16 26  1  0  0  0  0
 16 27  1  0  0  0  0
 17 28  1  0  0  0  0
M  CHG  2   4  -1  10   1
M  END
> <PUBCHEM_COMPOUND_CID>
107646

> <PUBCHEM_CONFORMER_RMSD>
0.6

> <PUBCHEM_CONFORMER_DIVERSEORDER>
1
8
10
15
6
7
16
12
11
5
13
4
2
14
3
9

> <PUBCHEM_MMFF94_PARTIAL_CHARGES>
19
1 -0.12
10 1.09
11 0.65
12 0.55
13 0.55
14 0.65
15 -0.14
16 0.37
17 0.08
18 0.5
2 -0.08
28 0.15
3 -0.56
4 -0.52
5 -0.52
6 -0.79
7 -0.79
8 -0.5
9 -0.57

> <PUBCHEM_EFFECTIVE_ROTOR_COUNT>
4

> <PUBCHEM_PHARMACOPHORE_FEATURES>
7
1 3 acceptor
1 4 acceptor
1 5 acceptor
1 9 acceptor
4 6 7 8 12 cation
5 2 9 15 17 18 rings
6 3 6 7 11 12 14 rings

> <PUBCHEM_HEAVY_ATOM_COUNT>
18

> <PUBCHEM_ATOM_DEF_STEREO_COUNT>
0

> <PUBCHEM_ATOM_UDEF_STEREO_COUNT>
0

> <PUBCHEM_BOND_DEF_STEREO_COUNT>
0

> <PUBCHEM_BOND_UDEF_STEREO_COUNT>
1

> <PUBCHEM_ISOTOPIC_ATOM_COUNT>
0

> <PUBCHEM_COMPONENT_COUNT>
1

> <PUBCHEM_CACTVS_TAUTO_COUNT>
1

> <PUBCHEM_CONFORMER_ID>
0001A47E00000001

> <PUBCHEM_MMFF94_ENERGY>
73.1265

> <PUBCHEM_FEATURE_SELFOVERLAP>
35.61

> <PUBCHEM_SHAPE_FINGERPRINT>
10498660 4 18336539538184897252
11640471 11 17895182312268322206
12173636 292 18341606001734402773
12382932 28 8214138594505822514
12491281 212 18335143094114444378
12824470 246 11023523788572652133
14123250 116 18409738386669808480
14790565 3 18341334405810876449
15502708 8 18272369810352293411
15775835 57 18335424508766570464
16752209 62 18200008674264900557
16945 1 18341599438919152419
17134986 127 18049439249274698237
17357990 137 18118108187410237850
18186145 218 17822298959650156378
18219364 16 15864352501526526844
18785283 64 17836666127460930379
20300324 65 18267025144928559028
20361792 2 14333413376041625666
20645476 183 18266172842538075075
20871999 31 18130788975050773204
21421566 26 17771629232787983382
21501502 16 18409728474238236538
21524375 3 18263643961477786467
22620623 9 17346309440825130543
22802520 49 18059005202379089626
23419403 2 16160201578399070067
235170 7 17415586413191488076
23557571 272 17983554571382006378
23559900 14 17845926313881319578
238 59 17320666428362477484
27216 239 14057276575444092350
2748010 2 17838024329353498019
3060560 45 17906729207015299076
3082319 5 18413108381466394550
4028521 119 18260544563011756132
474 4 17749112244401059084
526903 126 18190456254344522256
59027123 10 18411144649652217454
7615 1 18188475948383126394
7832392 63 18411140208355469656
81228 2 18268697484691879467
9981440 41 17898846018736495952

> <PUBCHEM_SHAPE_MULTIPOLES>
333.64
6.87
2.84
1.24
6.05
0.18
0
2.9
-2.75
-1.74
-0.21
-0.14
0.04
-1.22

> <PUBCHEM_SHAPE_SELFOVERLAP>
677.34

> <PUBCHEM_SHAPE_VOLUME>
197.3

> <PUBCHEM_COORDINATE_TYPE>
2
5
10

$$$$
5485188
  -OEChem-10241302493D

 28 29  0     0  0  0  0  0  0999 V2000
   -5.4634   -0.7239   -0.8627 Cl  0  0  0  0  0  0  0  0  0  0  0  0
   -2.6250    0.0790   -1.2461 S   0  0  0  0  0  0  0  0  0  0  0  0
    0.9622   -2.5527    0.5397 O   0  0  0  0  0  0  0  0  0  0  0  0
    1.4012    2.5994    1.0615 O   0  5  0  0  0  0  0  0  0  0  0  0
    1.3218    2.6201   -1.1158 O   0  0  0  0  0  0  0  0  0  0  0  0
    0.6781   -0.2320    0.0259 N   0  0  0  0  0  0  0  0  0  0  0  0
    2.8336   -1.2067   -0.0748 N   0  0  0  0  0  0  0  0  0  0  0  0
    2.6301    1.1450   -0.0814 N   0  0  0  0  0  0  0  0  0  0  0  0
   -3.7523   -0.0545    1.0765 N   0  0  0  0  0  0  0  0  0  0  0  0
    1.7390    2.1506   -0.0451 N   0  3  0  0  0  0  0  0  0  0  0  0
    0.0902   -1.5687   -0.0111 C   0  0  0  0  0  0  0  0  0  0  0  0
    2.0647   -0.0361   -0.0455 C   0  0  0  0  0  0  0  0  0  0  0  0
   -0.2681    0.8777   -0.0207 C   0  0  0  0  0  0  0  0  0  0  0  0
    2.2200   -2.5283   -0.1298 C   0  0  0  0  0  0  0  0  0  0  0  0
   -1.7079    0.4674    0.1319 C   0  0  0  0  0  0  0  0  0  0  0  0
    4.2797   -1.1583   -0.2611 C   0  0  0  0  0  0  0  0  0  0  0  0
   -2.4447    0.3466    1.2691 C   0  0  0  0  0  0  0  0  0  0  0  0
   -3.9592   -0.2248   -0.2104 C   0  0  0  0  0  0  0  0  0  0  0  0
   -0.8051   -1.6699    0.6023 H   0  0  0  0  0  0  0  0  0  0  0  0
   -0.1557   -1.8522   -1.0414 H   0  0  0  0  0  0  0  0  0  0  0  0
   -0.2857    1.3589   -0.9981 H   0  0  0  0  0  0  0  0  0  0  0  0
   -0.2353    1.5052    0.8634 H   0  0  0  0  0  0  0  0  0  0  0  0
    2.0868   -2.8430   -1.1717 H   0  0  0  0  0  0  0  0  0  0  0  0
    2.8542   -3.2709    0.3654 H   0  0  0  0  0  0  0  0  0  0  0  0
    4.5169   -0.8113   -1.2720 H   0  0  0  0  0  0  0  0  0  0  0  0
    4.7427   -2.1410   -0.1234 H   0  0  0  0  0  0  0  0  0  0  0  0
    4.7387   -0.4770    0.4629 H   0  0  0  0  0  0  0  0  0  0  0  0
   -2.0963    0.5326    2.2761 H   0  0  0  0  0  0  0  0  0  0  0  0
  1 18  1  0  0  0  0
  2 15  1  0  0  0  0
  2 18  1  0  0  0  0
  3 11  1  0  0  0  0
  3 14  1  0  0  0  0
  4 10  1  0  0  0  0
  5 10  2  0  0  0  0
  6 11  1  0  0  0  0
  6 12  1  0  0  0  0
  6 13  1  0  0  0  0
  7 12  1  0  0  0  0
  7 14  1  0  0  0  0
  7 16  1  0  0  0  0
  8 10  1  0  0  0  0
  8 12  2  0  0  0  0
  9 17  1  0  0  0  0
  9 18  2  0  0  0  0
 11 19  1  0  0  0  0
 11 20  1  0  0  0  0
 13 15  1  0  0  0  0
 13 21  1  0  0  0  0
 13 22  1  0  0  0  0
 14 23  1  0  0  0  0
 14 24  1  0  0  0  0
 15 17  2  0  0  0  0
 16 25  1  0  0  0  0
 16 26  1  0  0  0  0
 16 27  1  0  0  0  0
 17 28  1  0  0  0  0
M  CHG  2   4  -1  10   1
M  END
> <PUBCHEM_COMPOUND_CID>
5485188

> <PUBCHEM_CONFORMER_RMSD>
0.6

> <PUBCHEM_CONFORMER_DIVERSEORDER>
2
1

> <PUBCHEM_MMFF94_PARTIAL_CHARGES>
19
1 -0.12
10 1.09
11 0.65
12 0.55
13 0.55
14 0.65
15 -0.14
16 0.37
17 0.08
18 0.5
2 -0.08
28 0.15
3 -0.56
4 -0.52
5 -0.52
6 -0.79
7 -0.79
8 -0.5
9 -0.57

> <PUBCHEM_EFFECTIVE_ROTOR_COUNT>
4

> <PUBCHEM_PHARMACOPHORE_FEATURES>
7
1 3 acceptor
1 4 acceptor
1 5 acceptor
1 9 acceptor
4 6 7 8 12 cation
5 2 9 15 17 18 rings
6 3 6 7 11 12 14 rings

> <PUBCHEM_HEAVY_ATOM_COUNT>
18

> <PUBCHEM_ATOM_DEF_STEREO_COUNT>
0

> <PUBCHEM_ATOM_UDEF_STEREO_COUNT>
0

> <PUBCHEM_BOND_DEF_STEREO_COUNT>
1

> <PUBCHEM_BOND_UDEF_STEREO_COUNT>
0

> <PUBCHEM_ISOTOPIC_ATOM_COUNT>
0

> <PUBCHEM_COMPONENT_COUNT>
1

> <PUBCHEM_CACTVS_TAUTO_COUNT>
1

> <PUBCHEM_CONFORMER_ID>
0053B28400000002

> <PUBCHEM_MMFF94_ENERGY>
84.185

> <PUBCHEM_FEATURE_SELFOVERLAP>
35.61

> <PUBCHEM_SHAPE_FINGERPRINT>
10366900 7 17894351060161415403
11471102 20 18409166623253052631
11615757 297 18342739602839464263
11680986 33 18265619951709031146
11806522 49 18341892969911098230
12236239 1 17846778503531514831
13140716 1 18266174109706278530
13533116 47 18342458179866513387
13862211 1 18337952282258137826
14251717 144 18410572890135471599
15477762 27 18411980234806645326
16945 1 18409730642753654810
17134986 127 17827651553668409620
18222031 100 18342172216047968462
19422 9 17988928877292610095
200 152 18343015571879065559
20559304 39 18202283601907944497
20645477 70 18334007324530900655
20671657 1 18270405013185662500
20671657 53 18338233739621994999
21634736 98 18271518805485116367
21639500 275 18411131476417788597
22112679 90 17418095412536244681
221490 88 18336270153589052131
2255824 54 18411986896427366116
2334 1 18049726522573322394
23402539 116 18269553828425588014
23419403 2 15223638299714499914
23526113 38 17604709958787805371
23558518 356 17685206571168291594
23559900 14 18261388992452983609
23598291 2 18130238077108004317
2748010 2 18119539979103617226
3060560 45 18409164432951828102
3286 77 18408602556792783381
33824 294 18336541711401386587
350125 39 17976551824958905466
474 4 18269550718389224361
602551 16 15194991812969657007
7364860 26 18342736346995674152
7471813 234 17988350512506741993
77492 1 17847065493230480721
81228 2 17329422844507900632
8272917 22 18410298012639854549
9981440 41 17265512013304611728

> <PUBCHEM_SHAPE_MULTIPOLES>
333.64
8.01
2.55
1.02
7.24
0.56
-0.02
-2.84
1.25
-2.94
-0.03
0.79
0.23
-0.28

> <PUBCHEM_SHAPE_SELFOVERLAP>
677.735

> <PUBCHEM_SHAPE_VOLUME>
197.2

> <PUBCHEM_COORDINATE_TYPE>
2
5
10

$$$$
