5282440
  -OEChem-10241303063D

 29 30  0     0  0  0  0  0  0999 V2000
   -5.5803   -1.7419    0.1705 O   0  0  0  0  0  0  0  0  0  0  0  0
   -5.6418    0.2635   -0.9149 O   0  0  0  0  0  0  0  0  0  0  0  0
    3.5101    0.0439    0.2283 N   0  0  0  0  0  0  0  0  0  0  0  0
    4.7373   -0.7740   -1.4015 N   0  0  0  0  0  0  0  0  0  0  0  0
    2.6928    0.9980    0.9853 C   0  0  0  0  0  0  0  0  0  0  0  0
    1.2430    0.8689    0.6603 C   0  0  0  0  0  0  0  0  0  0  0  0
    0.4388   -0.0028    1.3946 C   0  0  0  0  0  0  0  0  0  0  0  0
    0.6913    1.6189   -0.3782 C   0  0  0  0  0  0  0  0  0  0  0  0
   -1.4687    0.6257    0.0517 C   0  0  0  0  0  0  0  0  0  0  0  0
   -0.9170   -0.1245    1.0902 C   0  0  0  0  0  0  0  0  0  0  0  0
   -0.6645    1.4974   -0.6826 C   0  0  0  0  0  0  0  0  0  0  0  0
    3.8322   -1.2061    0.6311 C   0  0  0  0  0  0  0  0  0  0  0  0
    4.0621    0.2742   -0.9853 C   0  0  0  0  0  0  0  0  0  0  0  0
    4.5975   -1.7006   -0.3989 C   0  0  0  0  0  0  0  0  0  0  0  0
   -2.8825    0.4988   -0.2656 C   0  0  0  0  0  0  0  0  0  0  0  0
   -3.6126   -0.5500    0.1017 C   0  0  0  0  0  0  0  0  0  0  0  0
   -5.0376   -0.5894   -0.2869 C   0  0  0  0  0  0  0  0  0  0  0  0
    3.0687    2.0035    0.7597 H   0  0  0  0  0  0  0  0  0  0  0  0
    2.8847    0.8216    2.0508 H   0  0  0  0  0  0  0  0  0  0  0  0
    0.8556   -0.5886    2.2097 H   0  0  0  0  0  0  0  0  0  0  0  0
    1.3070    2.3013   -0.9584 H   0  0  0  0  0  0  0  0  0  0  0  0
   -1.5025   -0.7973    1.7095 H   0  0  0  0  0  0  0  0  0  0  0  0
   -1.0765    2.0892   -1.4965 H   0  0  0  0  0  0  0  0  0  0  0  0
    3.5115   -1.6329    1.5712 H   0  0  0  0  0  0  0  0  0  0  0  0
    3.9508    1.2053   -1.5243 H   0  0  0  0  0  0  0  0  0  0  0  0
    5.0551   -2.6766   -0.4690 H   0  0  0  0  0  0  0  0  0  0  0  0
   -3.3199    1.3120   -0.8389 H   0  0  0  0  0  0  0  0  0  0  0  0
   -3.2311   -1.4054    0.6458 H   0  0  0  0  0  0  0  0  0  0  0  0
   -6.5303   -1.8183   -0.0620 H   0  0  0  0  0  0  0  0  0  0  0  0
  1 17  1  0  0  0  0
  1 29  1  0  0  0  0
  2 17  2  0  0  0  0
  3  5  1  0  0  0  0
  3 12  1  0  0  0  0
  3 13  1  0  0  0  0
  4 13  2  0  0  0  0
  4 14  1  0  0  0  0
  5  6  1  0  0  0  0
  5 18  1  0  0  0  0
  5 19  1  0  0  0  0
  6  7  2  0  0  0  0
  6  8  1  0  0  0  0
  7 10  1  0  0  0  0
  7 20  1  0  0  0  0
  8 11  2  0  0  0  0
  8 21  1  0  0  0  0
  9 10  2  0  0  0  0
  9 11  1  0  0  0  0
  9 15  1  0  0  0  0
 10 22  1  0  0  0  0
 11 23  1  0  0  0  0
 12 14  2  0  0  0  0
 12 24  1  0  0  0  0
 13 25  1  0  0  0  0
 14 26  1  0  0  0  0
 15 16  2  0  0  0  0
 15 27  1  0  0  0  0
 16 17  1  0  0  0  0
 16 28  1  0  0  0  0
M  END
> <PUBCHEM_COMPOUND_CID>
5282440

> <PUBCHEM_CONFORMER_RMSD>
0.6

> <PUBCHEM_CONFORMER_DIVERSEORDER>
2
16
15
7
22
17
20
4
19
9
21
12
10
18
5
11
3
6
13
14
8
1

> <PUBCHEM_MMFF94_PARTIAL_CHARGES>
27
1 -0.65
10 -0.15
11 -0.15
12 -0.3
13 0.04
14 0.08
15 -0.18
16 -0.14
17 0.71
2 -0.57
20 0.15
21 0.15
22 0.15
23 0.15
24 0.15
25 0.15
26 0.15
27 0.15
28 0.15
29 0.5
3 0.05
4 -0.57
5 0.4
6 -0.14
7 -0.15
8 -0.15
9 0.03

> <PUBCHEM_EFFECTIVE_ROTOR_COUNT>
4

> <PUBCHEM_PHARMACOPHORE_FEATURES>
6
1 1 acceptor
1 2 acceptor
3 1 2 17 anion
3 3 4 13 cation
5 3 4 12 13 14 rings
6 6 7 8 9 10 11 rings

> <PUBCHEM_HEAVY_ATOM_COUNT>
17

> <PUBCHEM_ATOM_DEF_STEREO_COUNT>
0

> <PUBCHEM_ATOM_UDEF_STEREO_COUNT>
0

> <PUBCHEM_BOND_DEF_STEREO_COUNT>
1

> <PUBCHEM_BOND_UDEF_STEREO_COUNT>
0

> <PUBCHEM_ISOTOPIC_ATOM_COUNT>
0

> <PUBCHEM_COMPONENT_COUNT>
1

> <PUBCHEM_CACTVS_TAUTO_COUNT>
1

> <PUBCHEM_CONFORMER_ID>
00509A8800000002

> <PUBCHEM_MMFF94_ENERGY>
35.6323

> <PUBCHEM_FEATURE_SELFOVERLAP>
30.501

> <PUBCHEM_SHAPE_FINGERPRINT>
10498660 4 14779563283165270166
10912923 1 15482105098250393929
11128504 68 17022905657119245366
117890 112 8214149555631925759
11796584 16 17917711310027786871
11858739 19 17917990560132043989
12251169 10 12679170593007025208
12596602 18 13686292487299060967
12644460 14 15697709436999756002
12670543 26 17822286847557506205
12670546 177 17168146753676184079
13533116 47 17489586791933832011
13675066 3 15339119013620698200
13760787 5 16298384613201041129
13955234 65 17915455202224949040
14178000 29 18409731785151899077
14366163 111 15646770089328643292
14455015 7 18202004343572169395
14528608 73 15719391750254108423
14911166 2 17530684320440374961
15885798 251 16559033783156315440
17959699 21 12035717704924079807
1813 80 17775293754820101780
193927 3 17846508019006972966
19784866 240 18060428984269464742
20281475 54 18339082566993617944
20369508 70 18343015601854179152
20374829 77 18334571321960515562
20388580 30 18334862735729374476
20645477 70 18343865528558120290
20871999 31 17749393632945673732
212916 134 10663816364764587781
21475661 188 8141792855539453022
21637258 2 17846490405261774006
2215653 11 18410848863707339439
22713019 99 18408042913695317010
23379529 103 17900832853270306043
23559900 14 18341045328003210072
25147074 1 17024858260953240776
270888 7 11675467165923577334
2838139 119 12685091518424930718
2871803 45 18259985942512015066
2916195 48 8790882978308081647
29717793 49 18337943602318429061
3004659 81 17822006472330216058
3286 77 18202562861119510360
33382 64 18202007637675208379
3472631 163 14201697389377631294
34797466 226 13840276861896970587
3759504 43 14779273033354291553
4047638 21 8142088675843744184
42 15 15913330195277434809
4259306 186 18409444760992954967
465052 167 17989492934962641278
474 4 7997963592073457118
4990 188 18186516618203434897
5374978 207 13254796841385609314
56616090 284 18114184111930460322
58807428 26 13038905508368404740
59755656 215 18340484457678661989
76465 3 18339078177748239242
94968 8 18342176653176050426
960060 61 18113622283116542334
9777508 108 11957246629365344779

> <PUBCHEM_SHAPE_MULTIPOLES>
328.15
12.09
1.53
1.16
8.63
0.14
0.07
6.77
-3.84
-0.36
-0.12
-0.76
-0.03
0.51

> <PUBCHEM_SHAPE_SELFOVERLAP>
702.527

> <PUBCHEM_SHAPE_VOLUME>
183.6

> <PUBCHEM_COORDINATE_TYPE>
2
5
10

$$$$
