5487172
  -OEChem-10241303073D

 48 48  0     1  0  0  0  0  0999 V2000
   -0.7495   -3.2618   -1.1384 O   0  0  0  0  0  0  0  0  0  0  0  0
    2.2493    1.9071    0.9463 O   0  0  0  0  0  0  0  0  0  0  0  0
   -1.5720   -3.2772    0.9755 O   0  0  0  0  0  0  0  0  0  0  0  0
   -2.7425    1.1792   -0.8012 O   0  0  0  0  0  0  0  0  0  0  0  0
    2.0299    1.7416   -1.3111 O   0  0  0  0  0  0  0  0  0  0  0  0
   -5.5318   -0.4237   -1.1046 O   0  0  0  0  0  0  0  0  0  0  0  0
    1.2936   -0.9607   -0.3773 N   0  0  0  0  0  0  0  0  0  0  0  0
   -2.3130   -0.6370    0.5806 N   0  0  0  0  0  0  0  0  0  0  0  0
    5.4708   -0.1140    0.8041 N   0  0  0  0  0  0  0  0  0  0  0  0
   -3.6907    1.6252    2.1626 N   0  0  0  0  0  0  0  0  0  0  0  0
    6.8934    1.0758   -0.4178 N   0  0  0  0  0  0  0  0  0  0  0  0
   -6.9432    1.3593   -1.4389 N   0  0  0  0  0  0  0  0  0  0  0  0
    0.1460   -0.5088    0.4140 C   0  0  1  0  0  0  0  0  0  0  0  0
   -1.1521   -1.1381   -0.1190 C   0  0  1  0  0  0  0  0  0  0  0  0
    2.4997   -0.2532    0.0194 C   0  0  1  0  0  0  0  0  0  0  0  0
    3.6878   -0.7564   -0.8118 C   0  0  0  0  0  0  0  0  0  0  0  0
    0.4047   -0.7854    1.8973 C   0  0  0  0  0  0  0  0  0  0  0  0
   -1.2025   -2.6536   -0.0114 C   0  0  0  0  0  0  0  0  0  0  0  0
    4.9851   -0.0698   -0.4486 C   0  0  0  0  0  0  0  0  0  0  0  0
   -3.0176    0.4892    0.1782 C   0  0  0  0  0  0  0  0  0  0  0  0
   -4.2110    0.7809    1.0852 C   0  0  2  0  0  0  0  0  0  0  0  0
    2.2423    1.2204   -0.2254 C   0  0  0  0  0  0  0  0  0  0  0  0
   -5.3365    1.5143    0.3480 C   0  0  0  0  0  0  0  0  0  0  0  0
    5.8444    0.6515   -1.1946 C   0  0  0  0  0  0  0  0  0  0  0  0
    6.6375    0.5983    0.7800 C   0  0  0  0  0  0  0  0  0  0  0  0
   -5.9220    0.6970   -0.7911 C   0  0  0  0  0  0  0  0  0  0  0  0
   -0.0054    0.5720    0.3042 H   0  0  0  0  0  0  0  0  0  0  0  0
   -1.2783   -0.8750   -1.1777 H   0  0  0  0  0  0  0  0  0  0  0  0
    2.7500   -0.4235    1.0711 H   0  0  0  0  0  0  0  0  0  0  0  0
    1.4269   -1.9644   -0.2565 H   0  0  0  0  0  0  0  0  0  0  0  0
    3.8192   -1.8371   -0.6675 H   0  0  0  0  0  0  0  0  0  0  0  0
    3.4988   -0.6007   -1.8826 H   0  0  0  0  0  0  0  0  0  0  0  0
   -0.5092   -0.6518    2.4865 H   0  0  0  0  0  0  0  0  0  0  0  0
    1.1353   -0.1017    2.3385 H   0  0  0  0  0  0  0  0  0  0  0  0
    0.7472   -1.8125    2.0679 H   0  0  0  0  0  0  0  0  0  0  0  0
   -2.6112   -1.1255    1.4205 H   0  0  0  0  0  0  0  0  0  0  0  0
   -4.5967   -0.1547    1.5066 H   0  0  0  0  0  0  0  0  0  0  0  0
   -4.9767    2.4624   -0.0728 H   0  0  0  0  0  0  0  0  0  0  0  0
   -6.1490    1.7492    1.0474 H   0  0  0  0  0  0  0  0  0  0  0  0
    5.0702   -0.5792    1.6084 H   0  0  0  0  0  0  0  0  0  0  0  0
    5.7878    0.9013   -2.2439 H   0  0  0  0  0  0  0  0  0  0  0  0
   -2.9210    1.1524    2.6346 H   0  0  0  0  0  0  0  0  0  0  0  0
   -3.3133    2.4915    1.7805 H   0  0  0  0  0  0  0  0  0  0  0  0
   -0.7670   -4.2394   -1.0582 H   0  0  0  0  0  0  0  0  0  0  0  0
    7.2488    0.7291    1.6616 H   0  0  0  0  0  0  0  0  0  0  0  0
    2.0710    2.8622    0.8112 H   0  0  0  0  0  0  0  0  0  0  0  0
   -7.2494    2.2869   -1.1633 H   0  0  0  0  0  0  0  0  0  0  0  0
   -7.4272    0.9330   -2.2221 H   0  0  0  0  0  0  0  0  0  0  0  0
  1 18  1  0  0  0  0
  1 44  1  0  0  0  0
  2 22  1  0  0  0  0
  2 46  1  0  0  0  0
  3 18  2  0  0  0  0
  4 20  2  0  0  0  0
  5 22  2  0  0  0  0
  6 26  2  0  0  0  0
  7 13  1  0  0  0  0
  7 15  1  0  0  0  0
  7 30  1  0  0  0  0
  8 14  1  0  0  0  0
  8 20  1  0  0  0  0
  8 36  1  0  0  0  0
  9 19  1  0  0  0  0
  9 25  1  0  0  0  0
  9 40  1  0  0  0  0
 10 21  1  0  0  0  0
 10 42  1  0  0  0  0
 10 43  1  0  0  0  0
 11 24  1  0  0  0  0
 11 25  2  0  0  0  0
 12 26  1  0  0  0  0
 12 47  1  0  0  0  0
 12 48  1  0  0  0  0
 13 14  1  0  0  0  0
 13 17  1  0  0  0  0
 13 27  1  0  0  0  0
 14 18  1  0  0  0  0
 14 28  1  0  0  0  0
 15 16  1  0  0  0  0
 15 22  1  0  0  0  0
 15 29  1  0  0  0  0
 16 19  1  0  0  0  0
 16 31  1  0  0  0  0
 16 32  1  0  0  0  0
 17 33  1  0  0  0  0
 17 34  1  0  0  0  0
 17 35  1  0  0  0  0
 19 24  2  0  0  0  0
 20 21  1  0  0  0  0
 21 23  1  0  0  0  0
 21 37  1  0  0  0  0
 23 26  1  0  0  0  0
 23 38  1  0  0  0  0
 23 39  1  0  0  0  0
 24 41  1  0  0  0  0
 25 45  1  0  0  0  0
M  END
> <PUBCHEM_COMPOUND_CID>
5487172

> <PUBCHEM_CONFORMER_RMSD>
1

> <PUBCHEM_CONFORMER_DIVERSEORDER>
1
47
32
27
13
14
28
22
8
44
11
17
7
3
31
21
10
18
35
33
5
16
29
6
24
45
39
36
26
40
34
25
20
38
2
41
46
9
30
43
23
19
4
37
15
12
42

> <PUBCHEM_MMFF94_PARTIAL_CHARGES>
36
1 -0.65
10 -0.99
11 -0.57
12 -0.8
13 0.27
14 0.36
15 0.33
16 0.18
18 0.66
19 -0.33
2 -0.65
20 0.57
21 0.33
22 0.66
23 0.06
24 0.08
25 0.04
26 0.57
3 -0.57
30 0.36
36 0.37
4 -0.57
40 0.27
41 0.15
42 0.36
43 0.36
44 0.5
45 0.15
46 0.5
47 0.37
48 0.37
5 -0.57
6 -0.57
7 -0.9
8 -0.73
9 0.03

> <PUBCHEM_EFFECTIVE_ROTOR_COUNT>
12

> <PUBCHEM_PHARMACOPHORE_FEATURES>
17
1 1 acceptor
1 10 cation
1 10 donor
1 12 donor
1 2 acceptor
1 3 acceptor
1 4 acceptor
1 5 acceptor
1 6 acceptor
1 7 cation
1 7 donor
1 8 donor
1 9 donor
3 1 3 18 anion
3 2 5 22 anion
3 9 11 25 cation
5 9 11 19 24 25 rings

> <PUBCHEM_HEAVY_ATOM_COUNT>
26

> <PUBCHEM_ATOM_DEF_STEREO_COUNT>
4

> <PUBCHEM_ATOM_UDEF_STEREO_COUNT>
0

> <PUBCHEM_BOND_DEF_STEREO_COUNT>
0

> <PUBCHEM_BOND_UDEF_STEREO_COUNT>
0

> <PUBCHEM_ISOTOPIC_ATOM_COUNT>
0

> <PUBCHEM_COMPONENT_COUNT>
1

> <PUBCHEM_CACTVS_TAUTO_COUNT>
8

> <PUBCHEM_CONFORMER_ID>
0053BA4400000001

> <PUBCHEM_MMFF94_ENERGY>
38.8845

> <PUBCHEM_FEATURE_SELFOVERLAP>
86.392

> <PUBCHEM_SHAPE_FINGERPRINT>
10835480 77 18201157758859303568
10906281 52 17987539081615461768
11823591 26 18335132068975703923
12166972 35 13398625065400538530
12616971 3 10737580430955669755
12788726 201 17774165587391697056
13533116 47 17774447062685223446
13583140 156 17312828190878369203
13673619 4 13182724967319867789
15142383 8 16949997024592724204
15183329 4 18413392025438629808
15348495 7 14852182766009988676
200 152 10807934842859108682
20554085 129 18200294564178374530
21033650 10 16986905404606281920
21150785 3 15697997453449320304
21424621 283 18059307447854535129
23035841 295 10015863180348196292
23198884 109 17775007868779596109
23559900 14 17917423280482336441
23622692 88 18260551130122116980
2838139 119 18113334215454989285
34934 24 18409731764299600138
351380 3 9727629484170842909
484989 97 18268707402446929899
5104073 3 18188772894175000288
59755656 520 18335129912928709847
6328613 192 18336271244927554748

> <PUBCHEM_SHAPE_MULTIPOLES>
469.97
16.69
2.42
1.43
4.23
2.21
-0.36
-9.8
3.61
-1.69
0.03
-0.82
-0.23
-0.13

> <PUBCHEM_SHAPE_SELFOVERLAP>
960.114

> <PUBCHEM_SHAPE_VOLUME>
271.5

> <PUBCHEM_COORDINATE_TYPE>
2
5
10

$$$$
