77469
  -OEChem-10241302583D

 14 14  0     0  0  0  0  0  0999 V2000
   -1.6604    1.7805    0.0000 F   0  0  0  0  0  0  0  0  0  0  0  0
   -2.4670   -0.8325   -0.0007 F   0  0  0  0  0  0  0  0  0  0  0  0
    2.9339    0.3989   -0.0006 N   0  0  0  0  0  0  0  0  0  0  0  0
    1.5589    0.0856    0.0002 C   0  0  0  0  0  0  0  0  0  0  0  0
    0.6104    1.1084    0.0002 C   0  0  0  0  0  0  0  0  0  0  0  0
    1.1473   -1.2472    0.0002 C   0  0  0  0  0  0  0  0  0  0  0  0
   -0.7496    0.7983    0.0002 C   0  0  0  0  0  0  0  0  0  0  0  0
   -0.2125   -1.5574    0.0003 C   0  0  0  0  0  0  0  0  0  0  0  0
   -1.1610   -0.5346    0.0002 C   0  0  0  0  0  0  0  0  0  0  0  0
    0.9180    2.1510    0.0001 H   0  0  0  0  0  0  0  0  0  0  0  0
    1.8767   -2.0532    0.0000 H   0  0  0  0  0  0  0  0  0  0  0  0
   -0.5333   -2.5949    0.0001 H   0  0  0  0  0  0  0  0  0  0  0  0
    3.6220   -0.3423    0.0005 H   0  0  0  0  0  0  0  0  0  0  0  0
    3.2330    1.3650    0.0003 H   0  0  0  0  0  0  0  0  0  0  0  0
  1  7  1  0  0  0  0
  2  9  1  0  0  0  0
  3  4  1  0  0  0  0
  3 13  1  0  0  0  0
  3 14  1  0  0  0  0
  4  5  2  0  0  0  0
  4  6  1  0  0  0  0
  5  7  1  0  0  0  0
  5 10  1  0  0  0  0
  6  8  2  0  0  0  0
  6 11  1  0  0  0  0
  7  9  2  0  0  0  0
  8  9  1  0  0  0  0
  8 12  1  0  0  0  0
M  END
> <PUBCHEM_COMPOUND_CID>
77469

> <PUBCHEM_CONFORMER_RMSD>
0.4

> <PUBCHEM_CONFORMER_DIVERSEORDER>
1

> <PUBCHEM_MMFF94_PARTIAL_CHARGES>
14
1 -0.19
10 0.15
11 0.15
12 0.15
13 0.4
14 0.4
2 -0.19
3 -0.9
4 0.1
5 -0.15
6 -0.15
7 0.19
8 -0.15
9 0.19

> <PUBCHEM_EFFECTIVE_ROTOR_COUNT>
0

> <PUBCHEM_PHARMACOPHORE_FEATURES>
3
1 3 cation
1 3 donor
6 4 5 6 7 8 9 rings

> <PUBCHEM_HEAVY_ATOM_COUNT>
9

> <PUBCHEM_ATOM_DEF_STEREO_COUNT>
0

> <PUBCHEM_ATOM_UDEF_STEREO_COUNT>
0

> <PUBCHEM_BOND_DEF_STEREO_COUNT>
0

> <PUBCHEM_BOND_UDEF_STEREO_COUNT>
0

> <PUBCHEM_ISOTOPIC_ATOM_COUNT>
0

> <PUBCHEM_COMPONENT_COUNT>
1

> <PUBCHEM_CACTVS_TAUTO_COUNT>
1

> <PUBCHEM_CONFORMER_ID>
00012E9D00000001

> <PUBCHEM_MMFF94_ENERGY>
26.1821

> <PUBCHEM_FEATURE_SELFOVERLAP>
15.223

> <PUBCHEM_SHAPE_FINGERPRINT>
16714656 1 18339364179219429750
16945 1 18338516447064311494
18185500 45 18122904493105767278
21040471 1 18266741268616749792
23402655 69 18268411474931493253
23552423 10 18189058607662095190
2748010 2 18339081458586210822
29004967 10 18262806279693905211
5084963 1 18202005455741715938

> <PUBCHEM_SHAPE_MULTIPOLES>
165.69
2.85
1.67
0.58
0.69
0.05
0
0.23
0
-0.44
0
0.03
-0.02
0

> <PUBCHEM_SHAPE_SELFOVERLAP>
348.552

> <PUBCHEM_SHAPE_VOLUME>
94

> <PUBCHEM_COORDINATE_TYPE>
2
5
10

$$$$
