70048
  -OEChem-10241303113D

 39 41  0     0  0  0  0  0  0999 V2000
    1.0500    0.9219    0.0623 N   0  0  0  0  0  0  0  0  0  0  0  0
    3.3320    2.7077   -0.0022 N   0  0  0  0  0  0  0  0  0  0  0  0
    0.0565    0.0531   -0.5653 C   0  0  0  0  0  0  0  0  0  0  0  0
    0.9243    2.2996   -0.4303 C   0  0  0  0  0  0  0  0  0  0  0  0
    2.4083    0.4130   -0.1676 C   0  0  0  0  0  0  0  0  0  0  0  0
    1.9727    3.2056    0.2203 C   0  0  0  0  0  0  0  0  0  0  0  0
    3.4477    1.3301    0.4816 C   0  0  0  0  0  0  0  0  0  0  0  0
   -1.3691    0.5045   -0.2842 C   0  0  0  0  0  0  0  0  0  0  0  0
    0.2657   -1.4130   -0.2163 C   0  0  0  0  0  0  0  0  0  0  0  0
   -2.3480    0.2470   -1.2223 C   0  0  0  0  0  0  0  0  0  0  0  0
    1.0759   -2.1828   -1.0259 C   0  0  0  0  0  0  0  0  0  0  0  0
   -1.6406    1.1582    0.9005 C   0  0  0  0  0  0  0  0  0  0  0  0
   -0.3614   -1.9293    0.8994 C   0  0  0  0  0  0  0  0  0  0  0  0
   -3.6548    0.6611   -0.9644 C   0  0  0  0  0  0  0  0  0  0  0  0
    1.2676   -3.5269   -0.7059 C   0  0  0  0  0  0  0  0  0  0  0  0
   -2.9474    1.5722    1.1583 C   0  0  0  0  0  0  0  0  0  0  0  0
   -0.1697   -3.2734    1.2193 C   0  0  0  0  0  0  0  0  0  0  0  0
   -3.9545    1.3236    0.2258 C   0  0  0  0  0  0  0  0  0  0  0  0
    0.6448   -4.0721    0.4168 C   0  0  0  0  0  0  0  0  0  0  0  0
    0.1842    0.1380   -1.6571 H   0  0  0  0  0  0  0  0  0  0  0  0
   -0.0480    2.7537   -0.2219 H   0  0  0  0  0  0  0  0  0  0  0  0
    1.0544    2.3304   -1.5215 H   0  0  0  0  0  0  0  0  0  0  0  0
    2.6273    0.3213   -1.2398 H   0  0  0  0  0  0  0  0  0  0  0  0
    2.5657   -0.5591    0.3094 H   0  0  0  0  0  0  0  0  0  0  0  0
    1.8952    4.2147   -0.1998 H   0  0  0  0  0  0  0  0  0  0  0  0
    1.7834    3.2985    1.2971 H   0  0  0  0  0  0  0  0  0  0  0  0
    3.3451    1.3137    1.5741 H   0  0  0  0  0  0  0  0  0  0  0  0
    4.4543    0.9602    0.2565 H   0  0  0  0  0  0  0  0  0  0  0  0
    3.5246    2.7193   -1.0042 H   0  0  0  0  0  0  0  0  0  0  0  0
   -2.1246   -0.2695   -2.1509 H   0  0  0  0  0  0  0  0  0  0  0  0
    1.5559   -1.7767   -1.9111 H   0  0  0  0  0  0  0  0  0  0  0  0
   -0.8884    1.3426    1.6614 H   0  0  0  0  0  0  0  0  0  0  0  0
   -0.9822   -1.3413    1.5645 H   0  0  0  0  0  0  0  0  0  0  0  0
   -4.4392    0.4668   -1.6901 H   0  0  0  0  0  0  0  0  0  0  0  0
    1.8994   -4.1497   -1.3325 H   0  0  0  0  0  0  0  0  0  0  0  0
   -3.1824    2.0821    2.0880 H   0  0  0  0  0  0  0  0  0  0  0  0
   -0.6501   -3.6973    2.0964 H   0  0  0  0  0  0  0  0  0  0  0  0
   -4.9724    1.6444    0.4274 H   0  0  0  0  0  0  0  0  0  0  0  0
    0.7945   -5.1185    0.6663 H   0  0  0  0  0  0  0  0  0  0  0  0
  1  3  1  0  0  0  0
  1  4  1  0  0  0  0
  1  5  1  0  0  0  0
  2  6  1  0  0  0  0
  2  7  1  0  0  0  0
  2 29  1  0  0  0  0
  3  8  1  0  0  0  0
  3  9  1  0  0  0  0
  3 20  1  0  0  0  0
  4  6  1  0  0  0  0
  4 21  1  0  0  0  0
  4 22  1  0  0  0  0
  5  7  1  0  0  0  0
  5 23  1  0  0  0  0
  5 24  1  0  0  0  0
  6 25  1  0  0  0  0
  6 26  1  0  0  0  0
  7 27  1  0  0  0  0
  7 28  1  0  0  0  0
  8 10  2  0  0  0  0
  8 12  1  0  0  0  0
  9 11  2  0  0  0  0
  9 13  1  0  0  0  0
 10 14  1  0  0  0  0
 10 30  1  0  0  0  0
 11 15  1  0  0  0  0
 11 31  1  0  0  0  0
 12 16  2  0  0  0  0
 12 32  1  0  0  0  0
 13 17  2  0  0  0  0
 13 33  1  0  0  0  0
 14 18  2  0  0  0  0
 14 34  1  0  0  0  0
 15 19  2  0  0  0  0
 15 35  1  0  0  0  0
 16 18  1  0  0  0  0
 16 36  1  0  0  0  0
 17 19  1  0  0  0  0
 17 37  1  0  0  0  0
 18 38  1  0  0  0  0
 19 39  1  0  0  0  0
M  END
> <PUBCHEM_COMPOUND_CID>
70048

> <PUBCHEM_CONFORMER_RMSD>
0.6

> <PUBCHEM_CONFORMER_DIVERSEORDER>
1
6
5
4
2
3

> <PUBCHEM_MMFF94_PARTIAL_CHARGES>
30
1 -0.81
10 -0.15
11 -0.15
12 -0.15
13 -0.15
14 -0.15
15 -0.15
16 -0.15
17 -0.15
18 -0.15
19 -0.15
2 -0.9
29 0.36
3 0.56
30 0.15
31 0.15
32 0.15
33 0.15
34 0.15
35 0.15
36 0.15
37 0.15
38 0.15
39 0.15
4 0.27
5 0.27
6 0.27
7 0.27
8 -0.14
9 -0.14

> <PUBCHEM_EFFECTIVE_ROTOR_COUNT>
4.2

> <PUBCHEM_PHARMACOPHORE_FEATURES>
6
1 1 cation
1 2 cation
1 2 donor
6 1 2 4 5 6 7 rings
6 8 10 12 14 16 18 rings
6 9 11 13 15 17 19 rings

> <PUBCHEM_HEAVY_ATOM_COUNT>
19

> <PUBCHEM_ATOM_DEF_STEREO_COUNT>
0

> <PUBCHEM_ATOM_UDEF_STEREO_COUNT>
0

> <PUBCHEM_BOND_DEF_STEREO_COUNT>
0

> <PUBCHEM_BOND_UDEF_STEREO_COUNT>
0

> <PUBCHEM_ISOTOPIC_ATOM_COUNT>
0

> <PUBCHEM_COMPONENT_COUNT>
1

> <PUBCHEM_CACTVS_TAUTO_COUNT>
1

> <PUBCHEM_CONFORMER_ID>
000111A000000001

> <PUBCHEM_MMFF94_ENERGY>
60.1107

> <PUBCHEM_FEATURE_SELFOVERLAP>
30.449

> <PUBCHEM_SHAPE_FINGERPRINT>
10090160 65 18339633547232095853
11578080 2 17174338980120880156
12553582 1 17618507575902831271
12643181 29 18338806710847383364
12788726 201 17762601190210181882
13004483 165 17401762424771808330
13009979 54 17344060763468753003
13140716 1 18410293618360744600
136203 1 17833550480463147643
13681431 1 17978771433792188589
14787075 74 17901682474831160998
14790565 3 18266755601651266508
15309172 13 18335698377245670437
15490181 8 18340492269427685636
15906896 17 17982447401811606878
16945 1 18341615858673830093
1813 80 17480866324975801695
20361792 2 17691114942971264463
20510252 161 18053664964744675929
20905425 154 17621598311846957246
21041028 32 17545613257304243737
21524375 3 18342169003122163925
21731228 192 18337956804193646729
21731516 1 17545319683784812639
22112679 90 17406847180607827463
2255824 54 18269275651630183503
22907989 373 17687196695308687628
23419403 2 16309155399410897546
23558518 356 18194960970626252406
23598288 3 17763740288888959964
23598291 2 17841715110794084925
2748010 2 18265915703067362862
298252 57 17275101777343434996
3091708 16 9189594489920089512
34934 24 17546733646778601564
352729 6 18124317365663491092
4175511 71 17693947289066070509
4340502 62 18335710451368917377
4409770 3 17761765569641000111
474 4 18413106143372046249
474229 33 18193555799482979707
5845 1 16405013988157884707
6138700 20 18268994177355287806
633830 44 18273503368238903965
7364860 26 18268991981935428687
81228 2 17613155590878553523
9981440 41 17055245760637667912

> <PUBCHEM_SHAPE_MULTIPOLES>
381.05
5.16
4.86
1.13
4.55
4.41
-0.03
-3.31
-0.01
-5.03
-0.71
0.29
-0.55
-0.27

> <PUBCHEM_SHAPE_SELFOVERLAP>
818.994

> <PUBCHEM_SHAPE_VOLUME>
207.2

> <PUBCHEM_COORDINATE_TYPE>
2
5
10

$$$$
