2735617
  -OEChem-10241302563D

 20 20  0     0  0  0  0  0  0999 V2000
    4.7299   -0.1718    0.0470 Br  0  0  0  0  0  0  0  0  0  0  0  0
   -2.3356   -2.1095    0.5144 S   0  0  0  0  0  0  0  0  0  0  0  0
   -1.3157    0.4002   -0.1174 N   0  0  0  0  0  0  0  0  0  0  0  0
   -3.6460    0.1006    0.0047 N   0  0  0  0  0  0  0  0  0  0  0  0
   -3.8099    1.4387   -0.3073 N   0  0  0  0  0  0  0  0  0  0  0  0
    0.0726    0.2688   -0.0796 C   0  0  0  0  0  0  0  0  0  0  0  0
    0.8651    1.3497    0.3065 C   0  0  0  0  0  0  0  0  0  0  0  0
    0.6681   -0.9435   -0.4280 C   0  0  0  0  0  0  0  0  0  0  0  0
    2.2533    1.2183    0.3441 C   0  0  0  0  0  0  0  0  0  0  0  0
    2.0563   -1.0750   -0.3903 C   0  0  0  0  0  0  0  0  0  0  0  0
    2.8490    0.0060   -0.0042 C   0  0  0  0  0  0  0  0  0  0  0  0
   -2.3870   -0.4825    0.1101 C   0  0  0  0  0  0  0  0  0  0  0  0
    0.4143    2.2999    0.5816 H   0  0  0  0  0  0  0  0  0  0  0  0
    0.1012   -1.7903   -0.7957 H   0  0  0  0  0  0  0  0  0  0  0  0
   -1.6213    1.3719   -0.1250 H   0  0  0  0  0  0  0  0  0  0  0  0
    2.8565    2.0702    0.6475 H   0  0  0  0  0  0  0  0  0  0  0  0
    2.5060   -2.0219   -0.6781 H   0  0  0  0  0  0  0  0  0  0  0  0
   -4.4835   -0.4518    0.1594 H   0  0  0  0  0  0  0  0  0  0  0  0
   -4.3463    1.8548    0.4529 H   0  0  0  0  0  0  0  0  0  0  0  0
   -4.4101    1.4779   -1.1299 H   0  0  0  0  0  0  0  0  0  0  0  0
  1 11  1  0  0  0  0
  2 12  2  0  0  0  0
  3  6  1  0  0  0  0
  3 12  1  0  0  0  0
  3 15  1  0  0  0  0
  4  5  1  0  0  0  0
  4 12  1  0  0  0  0
  4 18  1  0  0  0  0
  5 19  1  0  0  0  0
  5 20  1  0  0  0  0
  6  7  2  0  0  0  0
  6  8  1  0  0  0  0
  7  9  1  0  0  0  0
  7 13  1  0  0  0  0
  8 10  2  0  0  0  0
  8 14  1  0  0  0  0
  9 11  2  0  0  0  0
  9 16  1  0  0  0  0
 10 11  1  0  0  0  0
 10 17  1  0  0  0  0
M  END
> <PUBCHEM_COMPOUND_CID>
2735617

> <PUBCHEM_CONFORMER_RMSD>
0.6

> <PUBCHEM_CONFORMER_DIVERSEORDER>
1
4
8
2
7
5
3
6

> <PUBCHEM_MMFF94_PARTIAL_CHARGES>
20
1 -0.11
10 -0.15
11 0.11
12 0.5
13 0.15
14 0.15
15 0.37
16 0.15
17 0.15
18 0.37
19 0.36
2 -0.38
20 0.36
3 -0.55
4 -0.42
5 -0.73
6 0.12
7 -0.15
8 -0.15
9 -0.15

> <PUBCHEM_EFFECTIVE_ROTOR_COUNT>
3

> <PUBCHEM_PHARMACOPHORE_FEATURES>
6
1 1 hydrophobe
1 2 acceptor
1 3 donor
1 4 donor
1 5 donor
6 6 7 8 9 10 11 rings

> <PUBCHEM_HEAVY_ATOM_COUNT>
12

> <PUBCHEM_ATOM_DEF_STEREO_COUNT>
0

> <PUBCHEM_ATOM_UDEF_STEREO_COUNT>
0

> <PUBCHEM_BOND_DEF_STEREO_COUNT>
0

> <PUBCHEM_BOND_UDEF_STEREO_COUNT>
0

> <PUBCHEM_ISOTOPIC_ATOM_COUNT>
0

> <PUBCHEM_COMPONENT_COUNT>
1

> <PUBCHEM_CACTVS_TAUTO_COUNT>
3

> <PUBCHEM_CONFORMER_ID>
0029BE0100000001

> <PUBCHEM_MMFF94_ENERGY>
40.4777

> <PUBCHEM_FEATURE_SELFOVERLAP>
31.989

> <PUBCHEM_SHAPE_FINGERPRINT>
10219947 1 17632861923504297022
10608611 8 18339640143795531545
11062470 55 18410575067488490988
11401426 45 18202277000996702692
11471102 20 18272084981306629604
12032990 46 18342747329744144670
124424 183 18412260640304545331
12500047 106 18334290959591447967
12932764 1 16805870879342957557
13214271 11 18342453772639256686
13380535 76 18412825763822934215
13760787 19 18040436590407095962
13922767 16 18202559588269898312
14325111 11 18339923834790529696
15219456 202 18339924929980699632
15375358 24 18343864390086046214
15775835 57 17967812730194598731
18175812 5 18410292553356554740
19026448 5 17313386759891340510
200 152 17561077025529985191
20201158 50 18413392020584668731
20279233 1 18413395336383784879
20645477 70 17774443767838601030
21501502 16 18190747624746151591
22485316 2 18333447647358454690
23402539 116 18412255143537723541
23402655 69 18129371623549308221
23559900 14 18410577241670805926
265663 24 12679463071537012876
2748010 2 18270120252416292348
3312278 4 18412267237427137674
69090 78 18341610443395530263
8809292 202 18335143128136728699

> <PUBCHEM_SHAPE_MULTIPOLES>
241.8
7.54
1.68
0.7
1
0.3
-0.02
-0.13
-0.12
-1.12
-0.15
0.06
0.07
0.58

> <PUBCHEM_SHAPE_SELFOVERLAP>
469.257

> <PUBCHEM_SHAPE_VOLUME>
150.5

> <PUBCHEM_COORDINATE_TYPE>
2
5
10

$$$$
