130502
  -OEChem-10241303033D

 31 33  0     1  0  0  0  0  0999 V2000
   -0.0235    0.8527   -1.9017 O   0  0  0  0  0  0  0  0  0  0  0  0
    1.0490   -2.3792    1.2715 O   0  0  0  0  0  0  0  0  0  0  0  0
    0.9036   -0.5837   -0.2652 N   0  0  0  0  0  0  0  0  0  0  0  0
    4.5264   -0.1956    0.4694 N   0  0  0  0  0  0  0  0  0  0  0  0
   -1.3176   -0.9304   -0.9538 C   0  0  2  0  0  0  0  0  0  0  0  0
   -0.8372   -2.1480   -0.1759 C   0  0  0  0  0  0  0  0  0  0  0  0
   -0.0756   -0.0871   -1.1182 C   0  0  0  0  0  0  0  0  0  0  0  0
   -2.4332   -0.1552   -0.2872 C   0  0  0  0  0  0  0  0  0  0  0  0
    0.4965   -1.7420    0.3845 C   0  0  0  0  0  0  0  0  0  0  0  0
    2.1803    0.0354   -0.0664 C   0  0  0  0  0  0  0  0  0  0  0  0
   -3.7633   -0.4550   -0.5813 C   0  0  0  0  0  0  0  0  0  0  0  0
   -2.1313    0.8594    0.6211 C   0  0  0  0  0  0  0  0  0  0  0  0
    2.3390    1.4101   -0.2018 C   0  0  0  0  0  0  0  0  0  0  0  0
   -4.7915    0.2599    0.0331 C   0  0  0  0  0  0  0  0  0  0  0  0
   -3.1595    1.5741    1.2357 C   0  0  0  0  0  0  0  0  0  0  0  0
    3.2953   -0.7164    0.2674 C   0  0  0  0  0  0  0  0  0  0  0  0
   -4.4897    1.2743    0.9417 C   0  0  0  0  0  0  0  0  0  0  0  0
    3.5902    1.9830   -0.0020 C   0  0  0  0  0  0  0  0  0  0  0  0
    4.6421    1.1440    0.3291 C   0  0  0  0  0  0  0  0  0  0  0  0
   -1.6415   -1.2382   -1.9565 H   0  0  0  0  0  0  0  0  0  0  0  0
   -0.6762   -3.0017   -0.8434 H   0  0  0  0  0  0  0  0  0  0  0  0
   -1.5158   -2.4434    0.6298 H   0  0  0  0  0  0  0  0  0  0  0  0
   -4.0109   -1.2445   -1.2858 H   0  0  0  0  0  0  0  0  0  0  0  0
   -1.1097    1.1114    0.8887 H   0  0  0  0  0  0  0  0  0  0  0  0
    1.5064    2.0677   -0.4301 H   0  0  0  0  0  0  0  0  0  0  0  0
   -5.8273    0.0261   -0.1952 H   0  0  0  0  0  0  0  0  0  0  0  0
   -2.9249    2.3614    1.9460 H   0  0  0  0  0  0  0  0  0  0  0  0
    3.2637   -1.7963    0.3623 H   0  0  0  0  0  0  0  0  0  0  0  0
   -5.2903    1.8300    1.4211 H   0  0  0  0  0  0  0  0  0  0  0  0
    3.7361    3.0531   -0.0948 H   0  0  0  0  0  0  0  0  0  0  0  0
    5.6376    1.5416    0.4974 H   0  0  0  0  0  0  0  0  0  0  0  0
  1  7  2  0  0  0  0
  2  9  2  0  0  0  0
  3  7  1  0  0  0  0
  3  9  1  0  0  0  0
  3 10  1  0  0  0  0
  4 16  1  0  0  0  0
  4 19  2  0  0  0  0
  5  6  1  0  0  0  0
  5  7  1  0  0  0  0
  5  8  1  0  0  0  0
  5 20  1  0  0  0  0
  6  9  1  0  0  0  0
  6 21  1  0  0  0  0
  6 22  1  0  0  0  0
  8 11  2  0  0  0  0
  8 12  1  0  0  0  0
 10 13  1  0  0  0  0
 10 16  2  0  0  0  0
 11 14  1  0  0  0  0
 11 23  1  0  0  0  0
 12 15  2  0  0  0  0
 12 24  1  0  0  0  0
 13 18  2  0  0  0  0
 13 25  1  0  0  0  0
 14 17  2  0  0  0  0
 14 26  1  0  0  0  0
 15 17  1  0  0  0  0
 15 27  1  0  0  0  0
 16 28  1  0  0  0  0
 17 29  1  0  0  0  0
 18 19  1  0  0  0  0
 18 30  1  0  0  0  0
 19 31  1  0  0  0  0
M  END
> <PUBCHEM_COMPOUND_CID>
130502

> <PUBCHEM_CONFORMER_RMSD>
0.6

> <PUBCHEM_CONFORMER_DIVERSEORDER>
1
5
8
4
10
6
13
16
3
2
12
7
14
9
11
15

> <PUBCHEM_MMFF94_PARTIAL_CHARGES>
28
1 -0.57
10 0.12
11 -0.15
12 -0.15
13 -0.15
14 -0.15
15 -0.15
16 0.16
17 -0.15
18 -0.15
19 0.16
2 -0.57
23 0.15
24 0.15
25 0.15
26 0.15
27 0.15
28 0.15
29 0.15
3 -0.24
30 0.15
31 0.15
4 -0.62
5 0.2
6 0.06
7 0.57
8 -0.14
9 0.57

> <PUBCHEM_EFFECTIVE_ROTOR_COUNT>
2.6

> <PUBCHEM_PHARMACOPHORE_FEATURES>
6
1 1 acceptor
1 2 acceptor
1 4 acceptor
5 3 5 6 7 9 rings
6 4 10 13 16 18 19 rings
6 8 11 12 14 15 17 rings

> <PUBCHEM_HEAVY_ATOM_COUNT>
19

> <PUBCHEM_ATOM_DEF_STEREO_COUNT>
0

> <PUBCHEM_ATOM_UDEF_STEREO_COUNT>
1

> <PUBCHEM_BOND_DEF_STEREO_COUNT>
0

> <PUBCHEM_BOND_UDEF_STEREO_COUNT>
0

> <PUBCHEM_ISOTOPIC_ATOM_COUNT>
0

> <PUBCHEM_COMPONENT_COUNT>
1

> <PUBCHEM_CACTVS_TAUTO_COUNT>
4

> <PUBCHEM_CONFORMER_ID>
0001FDC600000001

> <PUBCHEM_MMFF94_ENERGY>
59.727

> <PUBCHEM_FEATURE_SELFOVERLAP>
30.448

> <PUBCHEM_SHAPE_FINGERPRINT>
10498660 4 17274824602103916729
11046707 91 11891330963251117949
11132069 177 17603584153190992326
11640471 11 18271814484282171329
12173636 292 17988070222782587438
12236239 1 18342451539530562855
12251169 10 18335137613646374076
12346645 44 18413107243031198087
12390115 104 17973458877676399708
12633257 1 18116135827302116000
12644460 14 18041553642481018194
12788726 201 17761502786531345166
12916748 109 18060144253591531591
13140716 1 18115022026048997514
13149001 5 13110381533579311118
13583140 156 14708028008558261772
13965767 371 17765460663672526937
14178342 30 17822590351690737539
14341114 328 18273219685954548993
14739800 52 17845632855565655784
14787075 74 18196087979077937555
15209294 21 18412262839459780197
15295992 7 18271242849889066760
15309172 13 18040427811187877334
15342168 16 18042409199892541284
15534591 1 18201997759091983671
15848702 105 18131633404286286121
16945 1 17603880974544735799
18186145 218 18409726262213950302
19784866 140 11600014232332899333
204376 136 18261114101207547915
20715895 44 17549544007881442857
20739085 24 18040439871698943364
21033648 29 17896019049075860053
21250096 35 11097856302301466505
21524375 3 18342739623929139991
22854114 59 18187363229198060917
23184049 59 18113900472258583852
23402539 116 17846208986462328549
23557571 272 16988286490379703055
23559900 14 17560246803824956806
298252 57 17561363993374507990
3472631 163 17845941723902301865
351380 180 18059856177092195353
392239 28 18267319784196355923
4340502 62 18114755867368691947
474 4 18408604785675211360
5104073 3 18116421734742923712
58807428 26 18041266747413822482
633830 44 18342179959641485790
76465 3 9511198317352169516
7808743 9 17130999655333612361
83771 10 8646773283078594299

> <PUBCHEM_SHAPE_MULTIPOLES>
369.31
9.11
2.06
1.13
0.31
0.41
0.18
-4.66
-1.79
0.4
-0.54
-0.33
0
-1.04

> <PUBCHEM_SHAPE_SELFOVERLAP>
813.127

> <PUBCHEM_SHAPE_VOLUME>
197

> <PUBCHEM_COORDINATE_TYPE>
2
5
10

$$$$
