107686
  -OEChem-10241303083D

 63 67  0     1  0  0  0  0  0999 V2000
   -0.5152   -2.8074    1.2695 O   0  0  0  0  0  0  0  0  0  0  0  0
   -5.7148    1.5048   -1.1511 O   0  0  0  0  0  0  0  0  0  0  0  0
   -1.1388    0.0468   -0.6752 N   0  0  0  0  0  0  0  0  0  0  0  0
   -2.6264    1.8147   -0.3739 N   0  0  0  0  0  0  0  0  0  0  0  0
    1.2173   -0.1869   -0.5134 C   0  0  1  0  0  0  0  0  0  0  0  0
    2.5181   -0.0345    0.3697 C   0  0  0  0  0  0  0  0  0  0  0  0
    0.5587   -1.5821   -0.5201 C   0  0  2  0  0  0  0  0  0  0  0  0
    0.0262    0.7209   -0.1165 C   0  0  0  0  0  0  0  0  0  0  0  0
    2.1865   -0.6417    1.7789 C   0  0  0  0  0  0  0  0  0  0  0  0
   -0.8201   -1.2998   -1.1274 C   0  0  0  0  0  0  0  0  0  0  0  0
    0.4691   -2.1833    0.8756 C   0  0  0  0  0  0  0  0  0  0  0  0
    1.7100   -2.0879    1.7224 C   0  0  0  0  0  0  0  0  0  0  0  0
    2.8798    1.4780    0.4331 C   0  0  0  0  0  0  0  0  0  0  0  0
    3.7655   -0.7809   -0.1969 C   0  0  0  0  0  0  0  0  0  0  0  0
   -2.3608    0.6057   -0.7690 C   0  0  0  0  0  0  0  0  0  0  0  0
    3.2244    2.1581   -0.7325 C   0  0  0  0  0  0  0  0  0  0  0  0
    4.9787   -0.7145    0.4823 C   0  0  0  0  0  0  0  0  0  0  0  0
    2.8577    2.1457    1.6554 C   0  0  0  0  0  0  0  0  0  0  0  0
    3.6583   -1.5086   -1.3787 C   0  0  0  0  0  0  0  0  0  0  0  0
   -3.4626   -0.2362   -1.3879 C   0  0  0  0  0  0  0  0  0  0  0  0
    3.5488    3.5136   -0.6756 C   0  0  0  0  0  0  0  0  0  0  0  0
    6.0940   -1.3818   -0.0245 C   0  0  0  0  0  0  0  0  0  0  0  0
    3.1819    3.5011    1.7124 C   0  0  0  0  0  0  0  0  0  0  0  0
    4.7736   -2.1761   -1.8853 C   0  0  0  0  0  0  0  0  0  0  0  0
    3.5274    4.1852    0.5469 C   0  0  0  0  0  0  0  0  0  0  0  0
    5.9914   -2.1126   -1.2081 C   0  0  0  0  0  0  0  0  0  0  0  0
   -4.5876   -0.4783   -0.4158 C   0  0  0  0  0  0  0  0  0  0  0  0
   -5.6557    0.4057   -0.3482 C   0  0  0  0  0  0  0  0  0  0  0  0
   -4.5329   -1.5969    0.4048 C   0  0  0  0  0  0  0  0  0  0  0  0
   -6.6891    0.1667    0.5578 C   0  0  0  0  0  0  0  0  0  0  0  0
   -5.5663   -1.8358    1.3107 C   0  0  0  0  0  0  0  0  0  0  0  0
   -6.6443   -0.9538    1.3873 C   0  0  0  0  0  0  0  0  0  0  0  0
   -6.8527    2.3522   -1.0066 C   0  0  0  0  0  0  0  0  0  0  0  0
    1.4482    0.0777   -1.5564 H   0  0  0  0  0  0  0  0  0  0  0  0
    1.0755   -2.3246   -1.1320 H   0  0  0  0  0  0  0  0  0  0  0  0
   -0.0947    0.8178    0.9660 H   0  0  0  0  0  0  0  0  0  0  0  0
    0.1579    1.7182   -0.5505 H   0  0  0  0  0  0  0  0  0  0  0  0
    1.3944   -0.0641    2.2714 H   0  0  0  0  0  0  0  0  0  0  0  0
    3.0537   -0.5972    2.4495 H   0  0  0  0  0  0  0  0  0  0  0  0
   -0.7592   -1.3138   -2.2220 H   0  0  0  0  0  0  0  0  0  0  0  0
   -1.5481   -2.0459   -0.7991 H   0  0  0  0  0  0  0  0  0  0  0  0
    1.4704   -2.4314    2.7349 H   0  0  0  0  0  0  0  0  0  0  0  0
    2.4696   -2.7614    1.3145 H   0  0  0  0  0  0  0  0  0  0  0  0
    3.2472    1.6569   -1.6958 H   0  0  0  0  0  0  0  0  0  0  0  0
    5.0857   -0.1490    1.4034 H   0  0  0  0  0  0  0  0  0  0  0  0
    2.6060    1.6664    2.5939 H   0  0  0  0  0  0  0  0  0  0  0  0
    2.7658   -1.5536   -1.9855 H   0  0  0  0  0  0  0  0  0  0  0  0
   -3.8352    0.3213   -2.2580 H   0  0  0  0  0  0  0  0  0  0  0  0
   -3.1338   -1.1856   -1.8133 H   0  0  0  0  0  0  0  0  0  0  0  0
    3.8178    4.0463   -1.5830 H   0  0  0  0  0  0  0  0  0  0  0  0
    7.0428   -1.3310    0.5016 H   0  0  0  0  0  0  0  0  0  0  0  0
    3.1674    4.0243    2.6641 H   0  0  0  0  0  0  0  0  0  0  0  0
    4.6983   -2.7342   -2.8140 H   0  0  0  0  0  0  0  0  0  0  0  0
   -1.7983    2.2626    0.0236 H   0  0  0  0  0  0  0  0  0  0  0  0
    3.7802    5.2404    0.5912 H   0  0  0  0  0  0  0  0  0  0  0  0
    6.8606   -2.6294   -1.6043 H   0  0  0  0  0  0  0  0  0  0  0  0
   -3.6992   -2.2909    0.3558 H   0  0  0  0  0  0  0  0  0  0  0  0
   -7.5571    0.8065    0.6735 H   0  0  0  0  0  0  0  0  0  0  0  0
   -5.5314   -2.7081    1.9568 H   0  0  0  0  0  0  0  0  0  0  0  0
   -7.4482   -1.1408    2.0933 H   0  0  0  0  0  0  0  0  0  0  0  0
   -6.8967    2.8027   -0.0092 H   0  0  0  0  0  0  0  0  0  0  0  0
   -7.7798    1.8326   -1.2719 H   0  0  0  0  0  0  0  0  0  0  0  0
   -6.7345    3.1740   -1.7207 H   0  0  0  0  0  0  0  0  0  0  0  0
  1 11  2  0  0  0  0
  2 28  1  0  0  0  0
  2 33  1  0  0  0  0
  3  8  1  0  0  0  0
  3 10  1  0  0  0  0
  3 15  1  0  0  0  0
  4 15  2  0  0  0  0
  4 54  1  0  0  0  0
  5  6  1  0  0  0  0
  5  7  1  0  0  0  0
  5  8  1  0  0  0  0
  5 34  1  0  0  0  0
  6  9  1  0  0  0  0
  6 13  1  0  0  0  0
  6 14  1  0  0  0  0
  7 10  1  0  0  0  0
  7 11  1  0  0  0  0
  7 35  1  0  0  0  0
  8 36  1  0  0  0  0
  8 37  1  0  0  0  0
  9 12  1  0  0  0  0
  9 38  1  0  0  0  0
  9 39  1  0  0  0  0
 10 40  1  0  0  0  0
 10 41  1  0  0  0  0
 11 12  1  0  0  0  0
 12 42  1  0  0  0  0
 12 43  1  0  0  0  0
 13 16  2  0  0  0  0
 13 18  1  0  0  0  0
 14 17  2  0  0  0  0
 14 19  1  0  0  0  0
 15 20  1  0  0  0  0
 16 21  1  0  0  0  0
 16 44  1  0  0  0  0
 17 22  1  0  0  0  0
 17 45  1  0  0  0  0
 18 23  2  0  0  0  0
 18 46  1  0  0  0  0
 19 24  2  0  0  0  0
 19 47  1  0  0  0  0
 20 27  1  0  0  0  0
 20 48  1  0  0  0  0
 20 49  1  0  0  0  0
 21 25  2  0  0  0  0
 21 50  1  0  0  0  0
 22 26  2  0  0  0  0
 22 51  1  0  0  0  0
 23 25  1  0  0  0  0
 23 52  1  0  0  0  0
 24 26  1  0  0  0  0
 24 53  1  0  0  0  0
 25 55  1  0  0  0  0
 26 56  1  0  0  0  0
 27 28  1  0  0  0  0
 27 29  2  0  0  0  0
 28 30  2  0  0  0  0
 29 31  1  0  0  0  0
 29 57  1  0  0  0  0
 30 32  1  0  0  0  0
 30 58  1  0  0  0  0
 31 32  2  0  0  0  0
 31 59  1  0  0  0  0
 32 60  1  0  0  0  0
 33 61  1  0  0  0  0
 33 62  1  0  0  0  0
 33 63  1  0  0  0  0
M  END
> <PUBCHEM_COMPOUND_CID>
107686

> <PUBCHEM_CONFORMER_RMSD>
1

> <PUBCHEM_CONFORMER_DIVERSEORDER>
7
59
69
62
63
33
14
48
37
54
50
8
18
66
29
31
61
21
68
70
53
4
35
41
60
64
67
39
6
16
56
65
45
28
55
30
40
20
12
36
52
19
43
27
44
42
38
51
25
24
57
49
58
9
11
32
22
26
46
47
3
15
17
13
5
2
34
23
1
10

> <PUBCHEM_MMFF94_PARTIAL_CHARGES>
46
1 -0.57
10 0.37
11 0.45
12 0.06
13 -0.14
14 -0.14
15 0.44
16 -0.15
17 -0.15
18 -0.15
19 -0.15
2 -0.36
20 0.2
21 -0.15
22 -0.15
23 -0.15
24 -0.15
25 -0.15
26 -0.15
27 -0.14
28 0.08
29 -0.15
3 -0.79
30 -0.15
31 -0.15
32 -0.15
33 0.28
4 -0.85
44 0.15
45 0.15
46 0.15
47 0.15
50 0.15
51 0.15
52 0.15
53 0.15
54 0.4
55 0.15
56 0.15
57 0.15
58 0.15
59 0.15
6 0.29
60 0.15
7 0.06
8 0.37

> <PUBCHEM_EFFECTIVE_ROTOR_COUNT>
7.2

> <PUBCHEM_PHARMACOPHORE_FEATURES>
9
1 1 acceptor
1 2 acceptor
1 4 donor
3 3 4 15 cation
5 3 5 7 8 10 rings
6 13 16 18 21 23 25 rings
6 14 17 19 22 24 26 rings
6 27 28 29 30 31 32 rings
6 5 6 7 9 11 12 rings

> <PUBCHEM_HEAVY_ATOM_COUNT>
33

> <PUBCHEM_ATOM_DEF_STEREO_COUNT>
2

> <PUBCHEM_ATOM_UDEF_STEREO_COUNT>
0

> <PUBCHEM_BOND_DEF_STEREO_COUNT>
0

> <PUBCHEM_BOND_UDEF_STEREO_COUNT>
0

> <PUBCHEM_ISOTOPIC_ATOM_COUNT>
0

> <PUBCHEM_COMPONENT_COUNT>
1

> <PUBCHEM_CACTVS_TAUTO_COUNT>
3

> <PUBCHEM_CONFORMER_ID>
0001A4A600000007

> <PUBCHEM_MMFF94_ENERGY>
123.2628

> <PUBCHEM_FEATURE_SELFOVERLAP>
45.846

> <PUBCHEM_SHAPE_FINGERPRINT>
10721379 63 18059306465156427724
10763959 59 18272365326591078965
10906281 52 12103273975962988674
11093857 5 17677622023964375003
11421498 54 16298942040512075276
11578080 2 17898302838454136478
11720765 8 18201721722245307760
12107698 1 18272932691501686085
12596602 18 18272378624574686307
12616971 3 18060415841754006863
14747281 78 18266197191525509988
14849402 71 18338520841328090944
14856354 85 17458638804647549191
14955137 171 18270963440918193014
15183329 4 12679463088838519595
15348495 7 18410858802224920747
15439362 3 18268987765101106788
17844677 252 18409451393018506933
18608769 82 18186805793903961666
19309040 13 17984985057601059500
20465049 17 18334577906604485090
21365058 113 18270415901407884476
22224240 67 10881696719287153246
22393880 68 18334010588706272923
23522609 53 16517115924897673757
23559900 14 18336544928590334735
239999 70 18409165523857566754
249057 25 16845572028810062885
249057 3 18131631166803893606
2747138 104 17677625327427130627
3178227 256 18410859845601488410
350125 39 18409448089861693188
392239 28 18408044026708863011
397830 11 18336547239483206547
4144715 1 18334864952380749041
46194498 28 18409451384476188524
484989 97 18261125088034760074
5104073 3 18187075166422247561
5912855 24 17772181179225590287
59755656 215 18336264518623446215
6086070 43 18336544923884099611
633830 44 18337940273122994071
9658208 31 17895482534735810090
9962374 69 18201145633206570519
9981440 41 17623550348871597256

> <PUBCHEM_SHAPE_MULTIPOLES>
657.42
16.71
3.9
1.66
24.33
3.82
-0.29
-0.38
1.38
-5.19
-0.6
-0.39
-0.31
3.26

> <PUBCHEM_SHAPE_SELFOVERLAP>
1441.257

> <PUBCHEM_SHAPE_VOLUME>
353.3

> <PUBCHEM_COORDINATE_TYPE>
2
5
10

$$$$
