5354115
  -OEChem-10241303013D

 22 22  0     0  0  0  0  0  0999 V2000
   -5.0917   -0.5069   -0.0515 S   0  0  0  0  0  0  0  0  0  0  0  0
    0.7408    1.8270   -0.4056 O   0  0  0  0  0  0  0  0  0  0  0  0
   -1.2141    0.0194   -0.4770 N   0  0  0  0  0  0  0  0  0  0  0  0
   -2.5030   -0.4340   -0.6477 N   0  0  0  0  0  0  0  0  0  0  0  0
   -3.1857    0.8913    1.1568 N   0  0  0  0  0  0  0  0  0  0  0  0
    1.1071   -0.5278   -0.0765 C   0  0  0  0  0  0  0  0  0  0  0  0
    1.5234    0.9097   -0.1845 C   0  0  0  0  0  0  0  0  0  0  0  0
    2.1168   -1.5329    0.1878 C   0  0  0  0  0  0  0  0  0  0  0  0
   -0.1898   -0.8297   -0.2289 C   0  0  0  0  0  0  0  0  0  0  0  0
    2.9765    1.1845   -0.0064 C   0  0  0  0  0  0  0  0  0  0  0  0
    3.4041   -1.1925    0.3348 C   0  0  0  0  0  0  0  0  0  0  0  0
    3.8311    0.1819    0.2352 C   0  0  0  0  0  0  0  0  0  0  0  0
   -3.5155    0.0098    0.1633 C   0  0  0  0  0  0  0  0  0  0  0  0
    1.8188   -2.5737    0.2669 H   0  0  0  0  0  0  0  0  0  0  0  0
   -0.5147   -1.8645   -0.1515 H   0  0  0  0  0  0  0  0  0  0  0  0
    3.3133    2.2121   -0.0783 H   0  0  0  0  0  0  0  0  0  0  0  0
    4.1585   -1.9461    0.5328 H   0  0  0  0  0  0  0  0  0  0  0  0
    4.8889    0.3856    0.3645 H   0  0  0  0  0  0  0  0  0  0  0  0
   -1.0499    1.0093   -0.6111 H   0  0  0  0  0  0  0  0  0  0  0  0
   -2.6479   -1.0787   -1.4172 H   0  0  0  0  0  0  0  0  0  0  0  0
   -2.2306    1.2032    1.2959 H   0  0  0  0  0  0  0  0  0  0  0  0
   -3.8874    1.2582    1.7911 H   0  0  0  0  0  0  0  0  0  0  0  0
  1 13  2  0  0  0  0
  2  7  2  0  0  0  0
  3  4  1  0  0  0  0
  3  9  1  0  0  0  0
  3 19  1  0  0  0  0
  4 13  1  0  0  0  0
  4 20  1  0  0  0  0
  5 13  1  0  0  0  0
  5 21  1  0  0  0  0
  5 22  1  0  0  0  0
  6  7  1  0  0  0  0
  6  8  1  0  0  0  0
  6  9  2  0  0  0  0
  7 10  1  0  0  0  0
  8 11  2  0  0  0  0
  8 14  1  0  0  0  0
  9 15  1  0  0  0  0
 10 12  2  0  0  0  0
 10 16  1  0  0  0  0
 11 12  1  0  0  0  0
 11 17  1  0  0  0  0
 12 18  1  0  0  0  0
M  END
> <PUBCHEM_COMPOUND_CID>
5354115

> <PUBCHEM_CONFORMER_RMSD>
0.6

> <PUBCHEM_CONFORMER_DIVERSEORDER>
1
18
16
31
29
25
32
30
23
15
10
17
14
19
11
26
6
27
2
21
3
5
28
12
22
8
4
9
20
24
7
13

> <PUBCHEM_MMFF94_PARTIAL_CHARGES>
22
1 -0.38
10 -0.14
11 -0.15
12 -0.15
13 0.5
14 0.15
15 0.15
16 0.15
17 0.15
18 0.15
19 0.4
2 -0.57
20 0.37
21 0.37
22 0.37
3 -0.52
4 -0.41
5 -0.8
6 0.01
7 0.54
8 -0.15
9 -0.05

> <PUBCHEM_EFFECTIVE_ROTOR_COUNT>
3

> <PUBCHEM_PHARMACOPHORE_FEATURES>
6
1 1 acceptor
1 2 acceptor
1 3 donor
1 4 donor
1 5 donor
6 6 7 8 10 11 12 rings

> <PUBCHEM_HEAVY_ATOM_COUNT>
13

> <PUBCHEM_ATOM_DEF_STEREO_COUNT>
0

> <PUBCHEM_ATOM_UDEF_STEREO_COUNT>
0

> <PUBCHEM_BOND_DEF_STEREO_COUNT>
1

> <PUBCHEM_BOND_UDEF_STEREO_COUNT>
0

> <PUBCHEM_ISOTOPIC_ATOM_COUNT>
0

> <PUBCHEM_COMPONENT_COUNT>
1

> <PUBCHEM_CACTVS_TAUTO_COUNT>
9

> <PUBCHEM_CONFORMER_ID>
0051B28300000001

> <PUBCHEM_MMFF94_ENERGY>
27.6965

> <PUBCHEM_FEATURE_SELFOVERLAP>
32.019

> <PUBCHEM_SHAPE_FINGERPRINT>
10219947 1 18409166601889096342
10980938 120 18409165506793748670
11471102 20 18335417976210691766
12032990 46 18262236621238983238
12251169 10 18411701006424800159
12346645 6 18343301461881833118
14144814 61 18412825772286021307
14251717 144 18408321090158327507
14252887 29 18412829049499425746
15501101 241 18259982673967868116
17802600 8 18272365378352316881
17834072 33 18341046410820096247
17844478 74 17676765396709907292
18522853 276 18272651255606975041
200 152 18343012312230977223
20279233 1 17095243618406881011
20645477 70 18261101933581516439
20871998 22 18196934366813522190
22485316 2 17385721392062558483
23048698 100 18412263934860992139
23402539 116 16917060058492115541
23402655 69 18411695483065020805
23557571 272 15123518012419401185
2748010 2 17977085887315559614
42 15 18409167701558927627

> <PUBCHEM_SHAPE_MULTIPOLES>
250.57
8.83
1.45
0.76
9.33
0.16
-0.08
-0.79
-1.04
-1.1
-0.01
0.32
0.06
-0.45

> <PUBCHEM_SHAPE_SELFOVERLAP>
504.262

> <PUBCHEM_SHAPE_VOLUME>
147.2

> <PUBCHEM_COORDINATE_TYPE>
2
5
10

$$$$
5375397
  -OEChem-10241303013D

 22 22  0     0  0  0  0  0  0999 V2000
    5.1514    0.5322   -0.0514 S   0  0  0  0  0  0  0  0  0  0  0  0
   -1.8494    2.2785    0.2575 O   0  0  0  0  0  0  0  0  0  0  0  0
    1.3332   -0.2964   -0.5295 N   0  0  0  0  0  0  0  0  0  0  0  0
    2.5827    0.2631   -0.6769 N   0  0  0  0  0  0  0  0  0  0  0  0
    3.3540   -1.0409    1.1073 N   0  0  0  0  0  0  0  0  0  0  0  0
   -1.0282    0.0530   -0.1431 C   0  0  0  0  0  0  0  0  0  0  0  0
   -2.0839    1.0811    0.1397 C   0  0  0  0  0  0  0  0  0  0  0  0
   -1.4171   -1.3377   -0.2631 C   0  0  0  0  0  0  0  0  0  0  0  0
    0.2413    0.4617   -0.2752 C   0  0  0  0  0  0  0  0  0  0  0  0
   -3.4758    0.5682    0.2764 C   0  0  0  0  0  0  0  0  0  0  0  0
   -2.6971   -1.7081   -0.1252 C   0  0  0  0  0  0  0  0  0  0  0  0
   -3.7315   -0.7402    0.1475 C   0  0  0  0  0  0  0  0  0  0  0  0
    3.6204   -0.1146    0.1359 C   0  0  0  0  0  0  0  0  0  0  0  0
   -0.6736   -2.1004   -0.4662 H   0  0  0  0  0  0  0  0  0  0  0  0
    0.4914    1.5145   -0.1748 H   0  0  0  0  0  0  0  0  0  0  0  0
   -4.2643    1.2828    0.4813 H   0  0  0  0  0  0  0  0  0  0  0  0
   -2.9869   -2.7494   -0.2149 H   0  0  0  0  0  0  0  0  0  0  0  0
   -4.7464   -1.1104    0.2477 H   0  0  0  0  0  0  0  0  0  0  0  0
    1.2554   -1.2929   -0.6875 H   0  0  0  0  0  0  0  0  0  0  0  0
    2.6820    0.9336   -1.4315 H   0  0  0  0  0  0  0  0  0  0  0  0
    2.4260   -1.4317    1.2297 H   0  0  0  0  0  0  0  0  0  0  0  0
    4.0773   -1.3632    1.7416 H   0  0  0  0  0  0  0  0  0  0  0  0
  1 13  2  0  0  0  0
  2  7  2  0  0  0  0
  3  4  1  0  0  0  0
  3  9  1  0  0  0  0
  3 19  1  0  0  0  0
  4 13  1  0  0  0  0
  4 20  1  0  0  0  0
  5 13  1  0  0  0  0
  5 21  1  0  0  0  0
  5 22  1  0  0  0  0
  6  7  1  0  0  0  0
  6  8  1  0  0  0  0
  6  9  2  0  0  0  0
  7 10  1  0  0  0  0
  8 11  2  0  0  0  0
  8 14  1  0  0  0  0
  9 15  1  0  0  0  0
 10 12  2  0  0  0  0
 10 16  1  0  0  0  0
 11 12  1  0  0  0  0
 11 17  1  0  0  0  0
 12 18  1  0  0  0  0
M  END
> <PUBCHEM_COMPOUND_CID>
5375397

> <PUBCHEM_CONFORMER_RMSD>
0.6

> <PUBCHEM_CONFORMER_DIVERSEORDER>
1
25
38
33
14
34
17
30
20
19
28
8
31
21
23
5
16
18
35
24
15
32
13
37
2
10
22
39
27
12
11
36
4
6
9
29
26
3
7

> <PUBCHEM_MMFF94_PARTIAL_CHARGES>
22
1 -0.38
10 -0.14
11 -0.15
12 -0.15
13 0.5
14 0.15
15 0.15
16 0.15
17 0.15
18 0.15
19 0.4
2 -0.57
20 0.37
21 0.37
22 0.37
3 -0.52
4 -0.41
5 -0.8
6 0.01
7 0.54
8 -0.15
9 -0.05

> <PUBCHEM_EFFECTIVE_ROTOR_COUNT>
3

> <PUBCHEM_PHARMACOPHORE_FEATURES>
6
1 1 acceptor
1 2 acceptor
1 3 donor
1 4 donor
1 5 donor
6 6 7 8 10 11 12 rings

> <PUBCHEM_HEAVY_ATOM_COUNT>
13

> <PUBCHEM_ATOM_DEF_STEREO_COUNT>
0

> <PUBCHEM_ATOM_UDEF_STEREO_COUNT>
0

> <PUBCHEM_BOND_DEF_STEREO_COUNT>
1

> <PUBCHEM_BOND_UDEF_STEREO_COUNT>
0

> <PUBCHEM_ISOTOPIC_ATOM_COUNT>
0

> <PUBCHEM_COMPONENT_COUNT>
1

> <PUBCHEM_CACTVS_TAUTO_COUNT>
9

> <PUBCHEM_CONFORMER_ID>
005205A500000001

> <PUBCHEM_MMFF94_ENERGY>
26.9367

> <PUBCHEM_FEATURE_SELFOVERLAP>
32.019

> <PUBCHEM_SHAPE_FINGERPRINT>
12251169 10 18408323293829809516
13024252 1 14707209916336404365
13897977 58 18411986883669207604
14144814 61 18408604738609776162
15669948 3 18341610447004702022
17834072 33 18333735745454245788
19050596 39 18334859450268900424
200 152 18040148552234975823
20279233 1 17561090206505106982
20510252 161 18201443527911597881
20645477 56 18341337686764697453
20645477 70 14924212808280651448
22485316 2 18113332011972819894
2297311 6 18201736062724429860
23402539 116 18272081713068483351
23557571 272 18059868242024692396
23559900 14 18129669595452802134
4214541 1 18411137996542199220
573450 72 18335130969390028546
77779 3 18412265026130812294

> <PUBCHEM_SHAPE_MULTIPOLES>
250.57
9.04
1.57
0.75
10.59
0.3
0.06
-0.23
0.9
-1.45
0.12
0.33
-0.09
-0.47

> <PUBCHEM_SHAPE_SELFOVERLAP>
503.26

> <PUBCHEM_SHAPE_VOLUME>
147.6

> <PUBCHEM_COORDINATE_TYPE>
2
5
10

$$$$
6740629
  -OEChem-10241303013D

 22 22  0     0  0  0  0  0  0999 V2000
    5.1514    0.5322   -0.0513 S   0  0  0  0  0  0  0  0  0  0  0  0
   -1.8494    2.2785    0.2575 O   0  0  0  0  0  0  0  0  0  0  0  0
    1.3332   -0.2964   -0.5295 N   0  0  0  0  0  0  0  0  0  0  0  0
    2.5827    0.2631   -0.6769 N   0  0  0  0  0  0  0  0  0  0  0  0
    3.3540   -1.0408    1.1073 N   0  0  0  0  0  0  0  0  0  0  0  0
   -1.0282    0.0530   -0.1431 C   0  0  0  0  0  0  0  0  0  0  0  0
   -2.0839    1.0811    0.1397 C   0  0  0  0  0  0  0  0  0  0  0  0
   -1.4171   -1.3377   -0.2631 C   0  0  0  0  0  0  0  0  0  0  0  0
    0.2413    0.4617   -0.2752 C   0  0  0  0  0  0  0  0  0  0  0  0
   -3.4758    0.5682    0.2764 C   0  0  0  0  0  0  0  0  0  0  0  0
   -2.6971   -1.7081   -0.1251 C   0  0  0  0  0  0  0  0  0  0  0  0
   -3.7315   -0.7402    0.1475 C   0  0  0  0  0  0  0  0  0  0  0  0
    3.6203   -0.1147    0.1359 C   0  0  0  0  0  0  0  0  0  0  0  0
   -0.6736   -2.1004   -0.4662 H   0  0  0  0  0  0  0  0  0  0  0  0
    0.4913    1.5145   -0.1748 H   0  0  0  0  0  0  0  0  0  0  0  0
   -4.2643    1.2828    0.4812 H   0  0  0  0  0  0  0  0  0  0  0  0
   -2.9868   -2.7494   -0.2149 H   0  0  0  0  0  0  0  0  0  0  0  0
   -4.7465   -1.1103    0.2476 H   0  0  0  0  0  0  0  0  0  0  0  0
    1.2554   -1.2929   -0.6875 H   0  0  0  0  0  0  0  0  0  0  0  0
    2.6820    0.9336   -1.4315 H   0  0  0  0  0  0  0  0  0  0  0  0
    2.4260   -1.4317    1.2296 H   0  0  0  0  0  0  0  0  0  0  0  0
    4.0772   -1.3633    1.7416 H   0  0  0  0  0  0  0  0  0  0  0  0
  1 13  2  0  0  0  0
  2  7  2  0  0  0  0
  3  4  1  0  0  0  0
  3  9  1  0  0  0  0
  3 19  1  0  0  0  0
  4 13  1  0  0  0  0
  4 20  1  0  0  0  0
  5 13  1  0  0  0  0
  5 21  1  0  0  0  0
  5 22  1  0  0  0  0
  6  7  1  0  0  0  0
  6  8  1  0  0  0  0
  6  9  2  0  0  0  0
  7 10  1  0  0  0  0
  8 11  2  0  0  0  0
  8 14  1  0  0  0  0
  9 15  1  0  0  0  0
 10 12  2  0  0  0  0
 10 16  1  0  0  0  0
 11 12  1  0  0  0  0
 11 17  1  0  0  0  0
 12 18  1  0  0  0  0
M  END
> <PUBCHEM_COMPOUND_CID>
6740629

> <PUBCHEM_CONFORMER_RMSD>
0.6

> <PUBCHEM_CONFORMER_DIVERSEORDER>
1
22
32
25
7
23
30
16
5
24
17
31
33
2
29
19
20
15
27
28
13
26
10
34
12
8
21
14
4
18
3
11
9
6

> <PUBCHEM_MMFF94_PARTIAL_CHARGES>
22
1 -0.38
10 -0.14
11 -0.15
12 -0.15
13 0.5
14 0.15
15 0.15
16 0.15
17 0.15
18 0.15
19 0.4
2 -0.57
20 0.37
21 0.37
22 0.37
3 -0.52
4 -0.41
5 -0.8
6 0.01
7 0.54
8 -0.15
9 -0.05

> <PUBCHEM_EFFECTIVE_ROTOR_COUNT>
3

> <PUBCHEM_PHARMACOPHORE_FEATURES>
6
1 1 acceptor
1 2 acceptor
1 3 donor
1 4 donor
1 5 donor
6 6 7 8 10 11 12 rings

> <PUBCHEM_HEAVY_ATOM_COUNT>
13

> <PUBCHEM_ATOM_DEF_STEREO_COUNT>
0

> <PUBCHEM_ATOM_UDEF_STEREO_COUNT>
0

> <PUBCHEM_BOND_DEF_STEREO_COUNT>
0

> <PUBCHEM_BOND_UDEF_STEREO_COUNT>
1

> <PUBCHEM_ISOTOPIC_ATOM_COUNT>
0

> <PUBCHEM_COMPONENT_COUNT>
1

> <PUBCHEM_CACTVS_TAUTO_COUNT>
9

> <PUBCHEM_CONFORMER_ID>
0066DA9500000001

> <PUBCHEM_MMFF94_ENERGY>
26.9366

> <PUBCHEM_FEATURE_SELFOVERLAP>
32.019

> <PUBCHEM_SHAPE_FINGERPRINT>
12251169 10 18408323293829803020
13024252 1 14707209916336404365
13897977 58 18411986883669207604
14144814 61 18408604738609776162
15669948 3 18341610447004702022
17834072 33 18333735745454245788
19050596 39 18334859450268900424
200 152 18040148552234975823
20279233 1 17561090206505106982
20510252 161 18201443527906323129
20645477 56 18341337686764697445
20645477 70 14924212808280638456
22485316 2 18113332011972819886
2297311 6 18201736062729704612
23402539 116 18272081713068483351
23557571 272 18059868242061622172
23559900 14 18129669595452802134
4214541 1 18411419471513628628
573450 72 18335130969390028546
77779 3 18412265026130812294

> <PUBCHEM_SHAPE_MULTIPOLES>
250.57
9.04
1.57
0.75
10.59
0.3
0.06
-0.23
0.9
-1.45
0.12
0.33
-0.09
-0.47

> <PUBCHEM_SHAPE_SELFOVERLAP>
503.26

> <PUBCHEM_SHAPE_VOLUME>
147.6

> <PUBCHEM_COORDINATE_TYPE>
2
5
10

$$$$
