107876
  -OEChem-10241303043D

 69 74  0     1  0  0  0  0  0999 V2000
    0.2955   -0.5461   -1.2486 O   0  0  0  0  0  0  0  0  0  0  0  0
   -1.7836    0.3513   -0.6707 O   0  0  0  0  0  0  0  0  0  0  0  0
    2.9949    1.8675   -0.4896 O   0  0  0  0  0  0  0  0  0  0  0  0
   -1.7414   -1.4114   -2.9203 O   0  0  0  0  0  0  0  0  0  0  0  0
   -3.7715   -2.9958   -2.0623 O   0  0  0  0  0  0  0  0  0  0  0  0
   -5.9069   -2.2099   -0.5737 O   0  0  0  0  0  0  0  0  0  0  0  0
   -1.2066    4.1886    0.1561 O   0  0  0  0  0  0  0  0  0  0  0  0
   -5.8929    2.4401    0.3970 O   0  0  0  0  0  0  0  0  0  0  0  0
    1.3483   -3.7932    2.4855 O   0  0  0  0  0  0  0  0  0  0  0  0
    2.9433    6.3711    0.9650 O   0  0  0  0  0  0  0  0  0  0  0  0
    0.2301   -2.4334    4.6357 O   0  0  0  0  0  0  0  0  0  0  0  0
    4.7477   -2.6814    1.2543 O   0  0  0  0  0  0  0  0  0  0  0  0
    5.7297   -3.7054   -1.1353 O   0  0  0  0  0  0  0  0  0  0  0  0
   -0.9883   -0.8548   -0.6792 C   0  0  1  0  0  0  0  0  0  0  0  0
    0.9435    0.4976   -0.5292 C   0  0  1  0  0  0  0  0  0  0  0  0
   -1.6617   -1.9169   -1.5774 C   0  0  1  0  0  0  0  0  0  0  0  0
    2.3039    0.8070   -1.1694 C   0  0  2  0  0  0  0  0  0  0  0  0
   -3.0662   -2.2558   -1.0711 C   0  0  1  0  0  0  0  0  0  0  0  0
    0.0664    1.7459   -0.5798 C   0  0  0  0  0  0  0  0  0  0  0  0
   -0.6580   -1.2825    0.7517 C   0  0  0  0  0  0  0  0  0  0  0  0
   -3.8166   -1.0087   -0.6859 C   0  0  0  0  0  0  0  0  0  0  0  0
    0.8381    2.9638   -0.1720 C   0  0  0  0  0  0  0  0  0  0  0  0
   -3.1372    0.2025   -0.5004 C   0  0  0  0  0  0  0  0  0  0  0  0
    3.2212   -0.4019   -1.1570 C   0  0  0  0  0  0  0  0  0  0  0  0
    2.2370    2.9598   -0.1619 C   0  0  0  0  0  0  0  0  0  0  0  0
   -5.2014   -1.0470   -0.4645 C   0  0  0  0  0  0  0  0  0  0  0  0
    0.2034   -2.3541    0.9729 C   0  0  0  0  0  0  0  0  0  0  0  0
   -1.2206   -0.5989    1.8266 C   0  0  0  0  0  0  0  0  0  0  0  0
    0.1563    4.1368    0.1789 C   0  0  0  0  0  0  0  0  0  0  0  0
   -3.8368    1.3614   -0.1514 C   0  0  0  0  0  0  0  0  0  0  0  0
    2.9420    4.1006    0.2310 C   0  0  0  0  0  0  0  0  0  0  0  0
    3.5695   -0.9958    0.0541 C   0  0  0  0  0  0  0  0  0  0  0  0
    3.7121   -0.9127   -2.3564 C   0  0  0  0  0  0  0  0  0  0  0  0
   -5.8964    0.1078   -0.1027 C   0  0  0  0  0  0  0  0  0  0  0  0
   -5.2150    1.3127    0.0483 C   0  0  0  0  0  0  0  0  0  0  0  0
    0.5042   -2.7447    2.2779 C   0  0  0  0  0  0  0  0  0  0  0  0
   -0.9198   -0.9893    3.1313 C   0  0  0  0  0  0  0  0  0  0  0  0
    0.8619    5.2786    0.5597 C   0  0  0  0  0  0  0  0  0  0  0  0
    2.2543    5.2591    0.5892 C   0  0  0  0  0  0  0  0  0  0  0  0
   -0.0573   -2.0621    3.3569 C   0  0  0  0  0  0  0  0  0  0  0  0
    4.4132   -2.1065    0.0656 C   0  0  0  0  0  0  0  0  0  0  0  0
    4.5557   -2.0234   -2.3449 C   0  0  0  0  0  0  0  0  0  0  0  0
    4.9062   -2.6203   -1.1340 C   0  0  0  0  0  0  0  0  0  0  0  0
    1.1356    0.2468    0.5198 H   0  0  0  0  0  0  0  0  0  0  0  0
   -1.0536   -2.8263   -1.6448 H   0  0  0  0  0  0  0  0  0  0  0  0
    2.1538    1.1194   -2.2128 H   0  0  0  0  0  0  0  0  0  0  0  0
   -2.9879   -2.8830   -0.1740 H   0  0  0  0  0  0  0  0  0  0  0  0
   -0.6715    1.7225    0.2247 H   0  0  0  0  0  0  0  0  0  0  0  0
   -0.3724    1.9249   -1.5686 H   0  0  0  0  0  0  0  0  0  0  0  0
   -2.1970   -2.0833   -3.4555 H   0  0  0  0  0  0  0  0  0  0  0  0
    0.6475   -2.8919    0.1391 H   0  0  0  0  0  0  0  0  0  0  0  0
   -1.8746    0.2570    1.7235 H   0  0  0  0  0  0  0  0  0  0  0  0
   -3.3070    2.3019   -0.0262 H   0  0  0  0  0  0  0  0  0  0  0  0
   -3.2584   -3.8013   -2.2452 H   0  0  0  0  0  0  0  0  0  0  0  0
    4.0292    4.0819    0.2503 H   0  0  0  0  0  0  0  0  0  0  0  0
    3.1999   -0.5927    0.9934 H   0  0  0  0  0  0  0  0  0  0  0  0
    3.4474   -0.4588   -3.3074 H   0  0  0  0  0  0  0  0  0  0  0  0
   -6.9700    0.0600    0.0631 H   0  0  0  0  0  0  0  0  0  0  0  0
   -1.3553   -0.4503    3.9684 H   0  0  0  0  0  0  0  0  0  0  0  0
    0.3327    6.1874    0.8357 H   0  0  0  0  0  0  0  0  0  0  0  0
    4.9323   -2.4137   -3.2866 H   0  0  0  0  0  0  0  0  0  0  0  0
   -5.3104   -2.9467   -0.7818 H   0  0  0  0  0  0  0  0  0  0  0  0
   -1.4976    5.0755    0.4288 H   0  0  0  0  0  0  0  0  0  0  0  0
   -6.8361    2.2235    0.4952 H   0  0  0  0  0  0  0  0  0  0  0  0
    1.7389   -3.7277    3.3719 H   0  0  0  0  0  0  0  0  0  0  0  0
    3.8962    6.1796    0.9273 H   0  0  0  0  0  0  0  0  0  0  0  0
    0.5340   -3.3553    4.6482 H   0  0  0  0  0  0  0  0  0  0  0  0
    4.3074   -2.1992    1.9752 H   0  0  0  0  0  0  0  0  0  0  0  0
    5.9703   -3.9193   -2.0532 H   0  0  0  0  0  0  0  0  0  0  0  0
  1 14  1  0  0  0  0
  1 15  1  0  0  0  0
  2 14  1  0  0  0  0
  2 23  1  0  0  0  0
  3 17  1  0  0  0  0
  3 25  1  0  0  0  0
  4 16  1  0  0  0  0
  4 50  1  0  0  0  0
  5 18  1  0  0  0  0
  5 54  1  0  0  0  0
  6 26  1  0  0  0  0
  6 62  1  0  0  0  0
  7 29  1  0  0  0  0
  7 63  1  0  0  0  0
  8 35  1  0  0  0  0
  8 64  1  0  0  0  0
  9 36  1  0  0  0  0
  9 65  1  0  0  0  0
 10 39  1  0  0  0  0
 10 66  1  0  0  0  0
 11 40  1  0  0  0  0
 11 67  1  0  0  0  0
 12 41  1  0  0  0  0
 12 68  1  0  0  0  0
 13 43  1  0  0  0  0
 13 69  1  0  0  0  0
 14 16  1  0  0  0  0
 14 20  1  0  0  0  0
 15 17  1  0  0  0  0
 15 19  1  0  0  0  0
 15 44  1  0  0  0  0
 16 18  1  0  0  0  0
 16 45  1  0  0  0  0
 17 24  1  0  0  0  0
 17 46  1  0  0  0  0
 18 21  1  0  0  0  0
 18 47  1  0  0  0  0
 19 22  1  0  0  0  0
 19 48  1  0  0  0  0
 19 49  1  0  0  0  0
 20 27  2  0  0  0  0
 20 28  1  0  0  0  0
 21 23  1  0  0  0  0
 21 26  2  0  0  0  0
 22 25  1  0  0  0  0
 22 29  2  0  0  0  0
 23 30  2  0  0  0  0
 24 32  2  0  0  0  0
 24 33  1  0  0  0  0
 25 31  2  0  0  0  0
 26 34  1  0  0  0  0
 27 36  1  0  0  0  0
 27 51  1  0  0  0  0
 28 37  2  0  0  0  0
 28 52  1  0  0  0  0
 29 38  1  0  0  0  0
 30 35  1  0  0  0  0
 30 53  1  0  0  0  0
 31 39  1  0  0  0  0
 31 55  1  0  0  0  0
 32 41  1  0  0  0  0
 32 56  1  0  0  0  0
 33 42  2  0  0  0  0
 33 57  1  0  0  0  0
 34 35  2  0  0  0  0
 34 58  1  0  0  0  0
 36 40  2  0  0  0  0
 37 40  1  0  0  0  0
 37 59  1  0  0  0  0
 38 39  2  0  0  0  0
 38 60  1  0  0  0  0
 41 43  2  0  0  0  0
 42 43  1  0  0  0  0
 42 61  1  0  0  0  0
M  END
> <PUBCHEM_COMPOUND_CID>
107876

> <PUBCHEM_CONFORMER_RMSD>
1

> <PUBCHEM_CONFORMER_DIVERSEORDER>
1
54
41
14
26
62
69
80
20
47
32
27
75
49
2
12
45
17
55
78
63
25
71
84
40
19
29
28
64
79
43
66
58
36
10
7
31
24
77
70
81
53
18
46
11
35
6
30
61
42
39
9
21
68
72
4
82
52
33
8
38
44
56
65
73
51
37
83
67
34
59
22
5
60
48
76
13
57
3
50
23
16
74
15

> <PUBCHEM_MMFF94_PARTIAL_CHARGES>
63
1 -0.56
10 -0.53
11 -0.53
12 -0.53
13 -0.53
14 0.7
15 0.28
16 0.28
17 0.42
18 0.42
19 0.14
2 -0.36
20 -0.14
21 -0.14
22 -0.14
23 0.08
24 -0.14
25 0.08
26 0.08
27 -0.15
28 -0.15
29 0.08
3 -0.36
30 -0.15
31 -0.15
32 -0.15
33 -0.15
34 -0.15
35 0.08
36 0.08
37 -0.15
38 -0.15
39 0.08
4 -0.68
40 0.08
41 0.08
42 -0.15
43 0.08
5 -0.68
50 0.4
51 0.15
52 0.15
53 0.15
54 0.4
55 0.15
56 0.15
57 0.15
58 0.15
59 0.15
6 -0.53
60 0.15
61 0.15
62 0.45
63 0.45
64 0.45
65 0.45
66 0.45
67 0.45
68 0.45
69 0.45
7 -0.53
8 -0.53
9 -0.53

> <PUBCHEM_EFFECTIVE_ROTOR_COUNT>
5.6

> <PUBCHEM_PHARMACOPHORE_FEATURES>
21
1 1 acceptor
1 10 donor
1 11 donor
1 12 donor
1 13 donor
1 2 acceptor
1 3 acceptor
1 4 acceptor
1 4 donor
1 5 acceptor
1 5 donor
1 6 donor
1 7 donor
1 8 donor
1 9 donor
6 2 14 16 18 21 23 rings
6 20 27 28 36 37 40 rings
6 21 23 26 30 34 35 rings
6 22 25 29 31 38 39 rings
6 24 32 33 41 42 43 rings
6 3 15 17 19 22 25 rings

> <PUBCHEM_HEAVY_ATOM_COUNT>
43

> <PUBCHEM_ATOM_DEF_STEREO_COUNT>
0

> <PUBCHEM_ATOM_UDEF_STEREO_COUNT>
5

> <PUBCHEM_BOND_DEF_STEREO_COUNT>
0

> <PUBCHEM_BOND_UDEF_STEREO_COUNT>
0

> <PUBCHEM_ISOTOPIC_ATOM_COUNT>
0

> <PUBCHEM_COMPONENT_COUNT>
1

> <PUBCHEM_CACTVS_TAUTO_COUNT>
986

> <PUBCHEM_CONFORMER_ID>
0001A56400000001

> <PUBCHEM_MMFF94_ENERGY>
163.8681

> <PUBCHEM_FEATURE_SELFOVERLAP>
106.723

> <PUBCHEM_SHAPE_FINGERPRINT>
10032420 55 17823134523746869237
10906281 52 18261957478899266044
11421498 54 17972036946578682483
11578080 2 17316511644762104908
12058002 1 17391911848716854399
12156800 1 17835218070800007368
12160290 23 17687219429261701244
12655364 131 17914621803235585808
12788726 201 18120957026833620764
14028597 1 17752204985799876962
14068700 675 18264493884810271198
14955137 171 18338796719640271791
15297060 5 17413307967289928449
15775530 1 17682413790058469306
15815584 197 17908443681289469404
16992752 21 18269849623424560286
18681886 176 18272365327023452607
19311894 1 18197784289106633725
20775438 99 18050274066474688031
20832881 197 18334864874364111654
244849 19 18045237173805696043
3493558 16 17417263026109358089
376196 1 17543035306317185605
463206 1 18334575715871178782
508180 173 18341349828679214008
57527295 17 18262529194374439142
57527358 35 18271812388654642351
6004065 56 18338231665385100874
6086070 43 18265595616936204389
9896288 288 17547280109064990194
9981440 41 17547846816487210320

> <PUBCHEM_SHAPE_MULTIPOLES>
808.62
10.54
7.03
2.78
7.24
12.09
-2.86
-5.19
5.03
-7.94
-2.51
-0.58
-3.86
0.4

> <PUBCHEM_SHAPE_SELFOVERLAP>
1822.607

> <PUBCHEM_SHAPE_VOLUME>
419.9

> <PUBCHEM_COORDINATE_TYPE>
2
5
10

$$$$
