3036149
  -OEChem-10241302563D

 28 28  0     0  0  0  0  0  0999 V2000
    0.7028    2.9010   -0.2560 S   0  0  0  0  0  0  0  0  0  0  0  0
    4.9535    0.0754   -0.2728 O   0  0  0  0  0  0  0  0  0  0  0  0
    0.2276    0.1670   -0.3175 N   0  0  0  0  0  0  0  0  0  0  0  0
    2.3610    0.9305    0.2175 N   0  0  0  0  0  0  0  0  0  0  0  0
    2.7618   -0.3781    0.3529 N   0  0  0  0  0  0  0  0  0  0  0  0
   -1.1677   -0.0387   -0.1771 C   0  0  0  0  0  0  0  0  0  0  0  0
   -3.8922   -0.4409    0.0967 C   0  0  0  0  0  0  0  0  0  0  0  0
   -1.7055   -1.2697   -0.5100 C   0  0  0  0  0  0  0  0  0  0  0  0
   -1.9594    0.9960    0.2894 C   0  0  0  0  0  0  0  0  0  0  0  0
   -3.0786   -1.4723   -0.3720 C   0  0  0  0  0  0  0  0  0  0  0  0
   -3.3326    0.7933    0.4275 C   0  0  0  0  0  0  0  0  0  0  0  0
   -5.3605   -0.6574    0.2444 C   0  0  0  0  0  0  0  0  0  0  0  0
    1.0543    1.2676   -0.1173 C   0  0  0  0  0  0  0  0  0  0  0  0
    4.0758   -0.7064    0.0855 C   0  0  0  0  0  0  0  0  0  0  0  0
    4.3596   -2.1673    0.3090 C   0  0  0  0  0  0  0  0  0  0  0  0
   -1.0810   -2.0795   -0.8766 H   0  0  0  0  0  0  0  0  0  0  0  0
   -1.5911    1.9542    0.6196 H   0  0  0  0  0  0  0  0  0  0  0  0
   -3.5029   -2.4378   -0.6348 H   0  0  0  0  0  0  0  0  0  0  0  0
   -3.9556    1.6005    0.8041 H   0  0  0  0  0  0  0  0  0  0  0  0
    0.7297   -0.6838   -0.5606 H   0  0  0  0  0  0  0  0  0  0  0  0
   -5.7669   -0.0600    1.0676 H   0  0  0  0  0  0  0  0  0  0  0  0
   -5.8761   -0.3783   -0.6798 H   0  0  0  0  0  0  0  0  0  0  0  0
   -5.5851   -1.7057    0.4685 H   0  0  0  0  0  0  0  0  0  0  0  0
    3.0638    1.6420    0.3904 H   0  0  0  0  0  0  0  0  0  0  0  0
    2.0991   -1.0296    0.7603 H   0  0  0  0  0  0  0  0  0  0  0  0
    5.1833   -2.4811   -0.3383 H   0  0  0  0  0  0  0  0  0  0  0  0
    4.6382   -2.3233    1.3545 H   0  0  0  0  0  0  0  0  0  0  0  0
    3.4834   -2.7781    0.0734 H   0  0  0  0  0  0  0  0  0  0  0  0
  1 13  2  0  0  0  0
  2 14  2  0  0  0  0
  3  6  1  0  0  0  0
  3 13  1  0  0  0  0
  3 20  1  0  0  0  0
  4  5  1  0  0  0  0
  4 13  1  0  0  0  0
  4 24  1  0  0  0  0
  5 14  1  0  0  0  0
  5 25  1  0  0  0  0
  6  8  2  0  0  0  0
  6  9  1  0  0  0  0
  7 10  2  0  0  0  0
  7 11  1  0  0  0  0
  7 12  1  0  0  0  0
  8 10  1  0  0  0  0
  8 16  1  0  0  0  0
  9 11  2  0  0  0  0
  9 17  1  0  0  0  0
 10 18  1  0  0  0  0
 11 19  1  0  0  0  0
 12 21  1  0  0  0  0
 12 22  1  0  0  0  0
 12 23  1  0  0  0  0
 14 15  1  0  0  0  0
 15 26  1  0  0  0  0
 15 27  1  0  0  0  0
 15 28  1  0  0  0  0
M  END
> <PUBCHEM_COMPOUND_CID>
3036149

> <PUBCHEM_CONFORMER_RMSD>
0.6

> <PUBCHEM_CONFORMER_DIVERSEORDER>
1
10
19
26
35
42
20
40
3
12
41
5
11
36
33
18
21
43
37
15
29
14
13
17
39
8
30
7
31
27
28
34
22
16
32
4
23
6
25
9
24
38
2

> <PUBCHEM_MMFF94_PARTIAL_CHARGES>
22
1 -0.38
10 -0.15
11 -0.15
12 0.14
13 0.5
14 0.57
15 0.06
16 0.15
17 0.15
18 0.15
19 0.15
2 -0.57
20 0.37
24 0.37
25 0.37
3 -0.55
4 -0.43
5 -0.43
6 0.12
7 -0.14
8 -0.15
9 -0.15

> <PUBCHEM_EFFECTIVE_ROTOR_COUNT>
5

> <PUBCHEM_PHARMACOPHORE_FEATURES>
6
1 1 acceptor
1 2 acceptor
1 3 donor
1 4 donor
1 5 donor
6 6 7 8 9 10 11 rings

> <PUBCHEM_HEAVY_ATOM_COUNT>
15

> <PUBCHEM_ATOM_DEF_STEREO_COUNT>
0

> <PUBCHEM_ATOM_UDEF_STEREO_COUNT>
0

> <PUBCHEM_BOND_DEF_STEREO_COUNT>
0

> <PUBCHEM_BOND_UDEF_STEREO_COUNT>
0

> <PUBCHEM_ISOTOPIC_ATOM_COUNT>
0

> <PUBCHEM_COMPONENT_COUNT>
1

> <PUBCHEM_CACTVS_TAUTO_COUNT>
6

> <PUBCHEM_CONFORMER_ID>
002E53F500000001

> <PUBCHEM_MMFF94_ENERGY>
48.2048

> <PUBCHEM_FEATURE_SELFOVERLAP>
32.028

> <PUBCHEM_SHAPE_FINGERPRINT>
12251169 10 18343021120554682517
12553582 1 18337659859193102582
12841375 25 18335699455677957740
13551218 46 18342740663533388839
13690532 89 18411136944095714193
14252887 29 18202008707433080462
15196674 1 18338797819141220114
15242433 33 18409168814061140822
15375462 189 18187640276401164818
15442244 35 18412265047004814281
15885798 251 18409448051175176448
17804303 29 18273497870564362929
17834072 33 18410014381420886132
17862501 102 18202001045200751391
1813 80 17749393641878337716
18186145 218 17532358941585410665
200 152 18202274819353744135
20281475 54 18410855417832701024
20291156 8 18409727344361131424
204376 136 10303806601229193660
20645477 70 18260826046261799014
20671657 1 18194969766524537325
21150785 3 7853575665944596931
21267235 1 18411709789274217699
221490 88 18117565243192792083
22485316 2 18409727344524570632
2255824 54 18191026905321979012
23402539 116 17846492626503645181
23463225 33 18412545422448350044
23559900 14 18268705181088793673
3004659 81 18041279873102955810
328317 168 9583514321774925179
351380 180 8790881874580659646
42 15 18342177773640327171
5104073 3 18201162169405348443
7364860 26 18196653110553225760
83771 10 18334855000666957540
9981440 41 17329423359867943377

> <PUBCHEM_SHAPE_MULTIPOLES>
291.73
10.27
2.26
0.69
3.1
1.12
-0.01
-5.69
0.99
1.42
-0.13
-0.11
-0.01
-0.52

> <PUBCHEM_SHAPE_SELFOVERLAP>
582.379

> <PUBCHEM_SHAPE_VOLUME>
173

> <PUBCHEM_COORDINATE_TYPE>
2
5
10

$$$$
