89179
  -OEChem-10241303073D

 27 28  0     0  0  0  0  0  0999 V2000
    3.6659    1.8812   -0.2223 O   0  0  0  0  0  0  0  0  0  0  0  0
    0.0375   -0.3060    0.0349 N   0  0  0  0  0  0  0  0  0  0  0  0
    0.5611   -1.5430    0.1694 N   0  0  0  0  0  0  0  0  0  0  0  0
    0.9935    0.6706   -0.0775 C   0  0  0  0  0  0  0  0  0  0  0  0
    2.2070    0.0305   -0.0115 C   0  0  0  0  0  0  0  0  0  0  0  0
    1.8794   -1.3302    0.1403 C   0  0  0  0  0  0  0  0  0  0  0  0
   -1.3338   -0.1284    0.0209 C   0  0  0  0  0  0  0  0  0  0  0  0
    0.6613    2.1018   -0.2345 C   0  0  0  0  0  0  0  0  0  0  0  0
    2.8011   -2.4735    0.2631 C   0  0  0  0  0  0  0  0  0  0  0  0
   -1.8880    1.0589    0.4994 C   0  0  0  0  0  0  0  0  0  0  0  0
   -2.1627   -1.1350   -0.4746 C   0  0  0  0  0  0  0  0  0  0  0  0
    3.4942    0.6545   -0.0855 C   0  0  0  0  0  0  0  0  0  0  0  0
   -3.2710    1.2396    0.4824 C   0  0  0  0  0  0  0  0  0  0  0  0
   -3.5458   -0.9542   -0.4916 C   0  0  0  0  0  0  0  0  0  0  0  0
   -4.0998    0.2332   -0.0130 C   0  0  0  0  0  0  0  0  0  0  0  0
    0.5616    2.6029    0.7329 H   0  0  0  0  0  0  0  0  0  0  0  0
    1.4680    2.6250   -0.7589 H   0  0  0  0  0  0  0  0  0  0  0  0
   -0.2073    2.2858   -0.8728 H   0  0  0  0  0  0  0  0  0  0  0  0
    3.4394   -2.5490   -0.6233 H   0  0  0  0  0  0  0  0  0  0  0  0
    3.4450   -2.3551    1.1407 H   0  0  0  0  0  0  0  0  0  0  0  0
    2.2638   -3.4219    0.3690 H   0  0  0  0  0  0  0  0  0  0  0  0
   -1.3278    1.8275    1.0139 H   0  0  0  0  0  0  0  0  0  0  0  0
   -1.7616   -2.0672   -0.8646 H   0  0  0  0  0  0  0  0  0  0  0  0
    4.3680   -0.0145   -0.0148 H   0  0  0  0  0  0  0  0  0  0  0  0
   -3.7057    2.1517    0.8813 H   0  0  0  0  0  0  0  0  0  0  0  0
   -4.1915   -1.7372   -0.8783 H   0  0  0  0  0  0  0  0  0  0  0  0
   -5.1770    0.3714   -0.0205 H   0  0  0  0  0  0  0  0  0  0  0  0
  1 12  2  0  0  0  0
  2  3  1  0  0  0  0
  2  4  1  0  0  0  0
  2  7  1  0  0  0  0
  3  6  2  0  0  0  0
  4  5  2  0  0  0  0
  4  8  1  0  0  0  0
  5  6  1  0  0  0  0
  5 12  1  0  0  0  0
  6  9  1  0  0  0  0
  7 10  2  0  0  0  0
  7 11  1  0  0  0  0
  8 16  1  0  0  0  0
  8 17  1  0  0  0  0
  8 18  1  0  0  0  0
  9 19  1  0  0  0  0
  9 20  1  0  0  0  0
  9 21  1  0  0  0  0
 10 13  1  0  0  0  0
 10 22  1  0  0  0  0
 11 14  2  0  0  0  0
 11 23  1  0  0  0  0
 12 24  1  0  0  0  0
 13 15  2  0  0  0  0
 13 25  1  0  0  0  0
 14 15  1  0  0  0  0
 14 26  1  0  0  0  0
 15 27  1  0  0  0  0
M  END
> <PUBCHEM_COMPOUND_CID>
89179

> <PUBCHEM_CONFORMER_RMSD>
0.6

> <PUBCHEM_CONFORMER_DIVERSEORDER>
2
1

> <PUBCHEM_MMFF94_PARTIAL_CHARGES>
21
1 -0.57
10 -0.15
11 -0.15
12 0.6
13 -0.15
14 -0.15
15 -0.15
2 0.59
22 0.15
23 0.15
24 0.06
25 0.15
26 0.15
27 0.15
3 -0.71
4 -0.33
5 -0.09
6 0.11
7 -0.02
8 0.18
9 0.18

> <PUBCHEM_EFFECTIVE_ROTOR_COUNT>
2

> <PUBCHEM_PHARMACOPHORE_FEATURES>
4
1 1 acceptor
1 3 acceptor
5 2 3 4 5 6 rings
6 7 10 11 13 14 15 rings

> <PUBCHEM_HEAVY_ATOM_COUNT>
15

> <PUBCHEM_ATOM_DEF_STEREO_COUNT>
0

> <PUBCHEM_ATOM_UDEF_STEREO_COUNT>
0

> <PUBCHEM_BOND_DEF_STEREO_COUNT>
0

> <PUBCHEM_BOND_UDEF_STEREO_COUNT>
0

> <PUBCHEM_ISOTOPIC_ATOM_COUNT>
0

> <PUBCHEM_COMPONENT_COUNT>
1

> <PUBCHEM_CACTVS_TAUTO_COUNT>
1

> <PUBCHEM_CONFORMER_ID>
00015C5B00000002

> <PUBCHEM_MMFF94_ENERGY>
43.7873

> <PUBCHEM_FEATURE_SELFOVERLAP>
20.297

> <PUBCHEM_SHAPE_FINGERPRINT>
10608611 8 18335980878893449813
10967382 1 18410575106143190154
10980938 120 18409730655654341928
11132069 177 18411412929988487936
11471102 20 18408599262273266373
11806522 49 18339639074358984103
12346645 44 18411982498375502112
12553582 1 17975409118713879474
12932764 1 17459185196884398003
13380535 76 18262236732839600218
14144814 61 18412263917712758371
14251717 144 18408881849694018350
14325111 11 18411982442614695881
14576447 43 18127678525850279191
14897335 6 18411135848494055275
15196674 1 18411418380597086729
15375462 189 18343869926478122233
15442244 35 18268148643373585744
15536298 74 18343302539849928918
15669948 3 17846208990773360399
15775835 57 18341899597272443801
16945 1 18337677536766601691
18186145 218 17531248309907783123
19422 9 18342738477378801547
200 152 18271516594283242919
20279233 1 16298103190101216707
20645477 70 18337948996249285103
21267235 1 18340215106672350347
21501502 16 18341611482175962843
21501925 9 18338222770286181138
221490 88 18336273391699052786
2255824 54 18334859364370061346
2334 1 18411417297706353842
23402539 116 18272364321885119356
23402655 69 18412821370292917173
23463225 33 18340205176597029847
23559900 14 18128811954708080266
2748010 2 18265045843103403724
3071541 37 18261117383142771998
3312278 4 18340770454849935083
34934 24 18413101771221822493
474 4 18188213229159643820
4990 188 17988656194103424828
5104073 3 18411702058860483139
53812653 166 18342173410032890344
57096353 35 18342452698870942287
603831 33 18201143460237838231
63268167 104 18409730638464027353
7364860 26 18341613681579188902
77492 1 18131349687584605235
9709674 26 18410860970798731479

> <PUBCHEM_SHAPE_MULTIPOLES>
292.86
6.91
2.18
0.68
1.98
0.19
0
-0.35
-0.14
-1.68
0.01
0.16
0
-0.7

> <PUBCHEM_SHAPE_SELFOVERLAP>
632.374

> <PUBCHEM_SHAPE_VOLUME>
163.1

> <PUBCHEM_COORDINATE_TYPE>
2
5
10

$$$$
