71644
  -OEChem-10241302493D

 36 38  0     0  0  0  0  0  0999 V2000
   -0.7764   -0.6330    1.8477 S   0  0  0  0  0  0  0  0  0  0  0  0
    2.9885    1.4927    0.3512 N   0  0  0  0  0  0  0  0  0  0  0  0
    0.7790    0.8938   -0.5088 C   0  0  0  0  0  0  0  0  0  0  0  0
    2.0382    1.6976   -0.7245 C   0  0  0  0  0  0  0  0  0  0  0  0
    0.9519   -0.5783   -0.3790 C   0  0  0  0  0  0  0  0  0  0  0  0
   -0.4109    1.5264   -0.4644 C   0  0  0  0  0  0  0  0  0  0  0  0
    0.3315   -1.3429    0.6317 C   0  0  0  0  0  0  0  0  0  0  0  0
   -1.7450    0.9341   -0.2658 C   0  0  0  0  0  0  0  0  0  0  0  0
   -2.0333   -0.0075    0.7385 C   0  0  0  0  0  0  0  0  0  0  0  0
    1.8009   -1.2435   -1.2842 C   0  0  0  0  0  0  0  0  0  0  0  0
    0.5744   -2.7238    0.7219 C   0  0  0  0  0  0  0  0  0  0  0  0
   -2.7897    1.3991   -1.0810 C   0  0  0  0  0  0  0  0  0  0  0  0
    2.4161    1.8972    1.6398 C   0  0  0  0  0  0  0  0  0  0  0  0
    4.2304    2.2321    0.1008 C   0  0  0  0  0  0  0  0  0  0  0  0
   -3.3456   -0.4760    0.9000 C   0  0  0  0  0  0  0  0  0  0  0  0
    2.0299   -2.6177   -1.1909 C   0  0  0  0  0  0  0  0  0  0  0  0
    1.4190   -3.3569   -0.1865 C   0  0  0  0  0  0  0  0  0  0  0  0
   -4.0907    0.9221   -0.9180 C   0  0  0  0  0  0  0  0  0  0  0  0
   -4.3679   -0.0153    0.0715 C   0  0  0  0  0  0  0  0  0  0  0  0
    1.8007    2.7673   -0.8170 H   0  0  0  0  0  0  0  0  0  0  0  0
    2.4837    1.4243   -1.6888 H   0  0  0  0  0  0  0  0  0  0  0  0
   -0.4332    2.6068   -0.6037 H   0  0  0  0  0  0  0  0  0  0  0  0
    2.2904   -0.7089   -2.0947 H   0  0  0  0  0  0  0  0  0  0  0  0
    0.1048   -3.3234    1.4990 H   0  0  0  0  0  0  0  0  0  0  0  0
   -2.5997    2.1394   -1.8557 H   0  0  0  0  0  0  0  0  0  0  0  0
    1.5846    1.2622    1.9503 H   0  0  0  0  0  0  0  0  0  0  0  0
    2.0777    2.9401    1.6323 H   0  0  0  0  0  0  0  0  0  0  0  0
    3.1668    1.7963    2.4329 H   0  0  0  0  0  0  0  0  0  0  0  0
    4.6854    1.9091   -0.8422 H   0  0  0  0  0  0  0  0  0  0  0  0
    4.9646    2.0286    0.8882 H   0  0  0  0  0  0  0  0  0  0  0  0
    4.0646    3.3145    0.0525 H   0  0  0  0  0  0  0  0  0  0  0  0
   -3.5874   -1.2045    1.6707 H   0  0  0  0  0  0  0  0  0  0  0  0
    2.6858   -3.1075   -1.9048 H   0  0  0  0  0  0  0  0  0  0  0  0
    1.5972   -4.4254   -0.1105 H   0  0  0  0  0  0  0  0  0  0  0  0
   -4.8870    1.2868   -1.5602 H   0  0  0  0  0  0  0  0  0  0  0  0
   -5.3808   -0.3850    0.2020 H   0  0  0  0  0  0  0  0  0  0  0  0
  1  7  1  0  0  0  0
  1  9  1  0  0  0  0
  2  4  1  0  0  0  0
  2 13  1  0  0  0  0
  2 14  1  0  0  0  0
  3  4  1  0  0  0  0
  3  5  1  0  0  0  0
  3  6  2  0  0  0  0
  4 20  1  0  0  0  0
  4 21  1  0  0  0  0
  5  7  1  0  0  0  0
  5 10  2  0  0  0  0
  6  8  1  0  0  0  0
  6 22  1  0  0  0  0
  7 11  2  0  0  0  0
  8  9  1  0  0  0  0
  8 12  2  0  0  0  0
  9 15  2  0  0  0  0
 10 16  1  0  0  0  0
 10 23  1  0  0  0  0
 11 17  1  0  0  0  0
 11 24  1  0  0  0  0
 12 18  1  0  0  0  0
 12 25  1  0  0  0  0
 13 26  1  0  0  0  0
 13 27  1  0  0  0  0
 13 28  1  0  0  0  0
 14 29  1  0  0  0  0
 14 30  1  0  0  0  0
 14 31  1  0  0  0  0
 15 19  1  0  0  0  0
 15 32  1  0  0  0  0
 16 17  2  0  0  0  0
 16 33  1  0  0  0  0
 17 34  1  0  0  0  0
 18 19  2  0  0  0  0
 18 35  1  0  0  0  0
 19 36  1  0  0  0  0
M  END
> <PUBCHEM_COMPOUND_CID>
71644

> <PUBCHEM_CONFORMER_RMSD>
0.6

> <PUBCHEM_CONFORMER_DIVERSEORDER>
1
4
2
3

> <PUBCHEM_MMFF94_PARTIAL_CHARGES>
28
1 -0.2
10 -0.15
11 -0.15
12 -0.15
13 0.27
14 0.27
15 -0.15
16 -0.15
17 -0.15
18 -0.15
19 -0.15
2 -0.81
22 0.15
23 0.15
24 0.15
25 0.15
3 -0.17
32 0.15
33 0.15
34 0.15
35 0.15
36 0.15
4 0.41
5 0.03
6 -0.18
7 0.1
8 0.03
9 0.1

> <PUBCHEM_EFFECTIVE_ROTOR_COUNT>
2.2

> <PUBCHEM_PHARMACOPHORE_FEATURES>
4
1 2 cation
6 5 7 10 11 16 17 rings
6 8 9 12 15 18 19 rings
7 1 3 5 6 7 8 9 rings

> <PUBCHEM_HEAVY_ATOM_COUNT>
19

> <PUBCHEM_ATOM_DEF_STEREO_COUNT>
0

> <PUBCHEM_ATOM_UDEF_STEREO_COUNT>
0

> <PUBCHEM_BOND_DEF_STEREO_COUNT>
0

> <PUBCHEM_BOND_UDEF_STEREO_COUNT>
0

> <PUBCHEM_ISOTOPIC_ATOM_COUNT>
0

> <PUBCHEM_COMPONENT_COUNT>
1

> <PUBCHEM_CACTVS_TAUTO_COUNT>
1

> <PUBCHEM_CONFORMER_ID>
000117DC00000001

> <PUBCHEM_MMFF94_ENERGY>
69.4564

> <PUBCHEM_FEATURE_SELFOVERLAP>
20.312

> <PUBCHEM_SHAPE_FINGERPRINT>
10764073 3 16376589486929695080
10871710 139 16171739956226658701
11578080 2 16373801108219744270
12011746 2 18334577902578517046
121448 382 17841407521972973343
12553582 1 17689443685075505127
12592029 89 18413102862354356554
12707595 3 18124037823543675511
12788726 201 16751848235428597998
12839892 36 18264474256018599939
13681431 1 18055916485554330958
14178342 30 18337407031748489905
14251764 3 18199459038235908792
14817 1 10884445386028002122
15309172 13 18339363096909166424
15502722 9 18413107238583074789
15852999 172 18261679267295470440
16945 1 17899991421282661879
1813 80 16986044379780408806
18186145 218 17969504801945037885
18915476 22 18341336617196196695
19930374 2 17976555123325185202
204376 136 18269273632937720380
20600515 1 16966853387933745184
20645477 70 18341604864148266581
20671657 53 18053384288632285103
20691752 17 17095809798212781353
21524375 3 18268710687357997850
21731228 192 18267858570199532576
22182313 1 18189357786462488155
23402539 116 17750222785446757349
23419403 2 17975453228180373402
23493267 7 16734135468219083580
23557571 272 17895769481980279891
23559900 14 18041848311327885932
2748010 2 18117023119636223571
3323516 105 18261968344807510575
4340502 62 18200883988789995947
4663303 62 18338801113222685707
474229 33 18192428786746896013
495365 180 18267285570254903149
5262128 65 18053391998219783975
6138700 20 18339082571964006926
633830 44 17559968764653537408
7364860 26 18340765931816738751
81228 2 17332222699523655272
81539 233 18409443700283589540
84936 182 18201725024226190104
84936 31 17987500546762687062
9709674 26 18260830372016435831

> <PUBCHEM_SHAPE_MULTIPOLES>
389.88
6.36
3.25
1.43
4.09
2.11
0.36
-3.56
-0.53
-3.75
-0.22
-0.08
0.07
1.46

> <PUBCHEM_SHAPE_SELFOVERLAP>
829.904

> <PUBCHEM_SHAPE_VOLUME>
217.4

> <PUBCHEM_COORDINATE_TYPE>
2
5
10

$$$$
