169071
  -OEChem-10241302593D

 20 19  0     1  0  0  0  0  0999 V2000
    2.0212    1.8211   -0.0187 Cl  0  0  0  0  0  0  0  0  0  0  0  0
    1.1163   -1.4100    1.2459 O   0  0  0  0  0  0  0  0  0  0  0  0
    1.4367   -1.1381   -0.9826 O   0  0  0  0  0  0  0  0  0  0  0  0
   -1.8288    0.2956   -0.3798 C   0  0  0  0  0  0  0  0  0  0  0  0
   -0.5450    1.1186   -0.6159 C   0  0  0  0  0  0  0  0  0  0  0  0
    0.6290    0.7434    0.2920 C   0  0  1  0  0  0  0  0  0  0  0  0
   -2.2719    0.4373    1.0791 C   0  0  0  0  0  0  0  0  0  0  0  0
   -1.6458   -1.1840   -0.7209 C   0  0  0  0  0  0  0  0  0  0  0  0
    1.0881   -0.6839    0.1009 C   0  0  0  0  0  0  0  0  0  0  0  0
   -2.6110    0.7075   -1.0295 H   0  0  0  0  0  0  0  0  0  0  0  0
   -0.2525    1.0103   -1.6690 H   0  0  0  0  0  0  0  0  0  0  0  0
   -0.7845    2.1806   -0.4717 H   0  0  0  0  0  0  0  0  0  0  0  0
    0.3726    0.9032    1.3430 H   0  0  0  0  0  0  0  0  0  0  0  0
   -2.3405    1.4911    1.3692 H   0  0  0  0  0  0  0  0  0  0  0  0
   -3.2653   -0.0058    1.2124 H   0  0  0  0  0  0  0  0  0  0  0  0
   -1.5984   -0.0711    1.7759 H   0  0  0  0  0  0  0  0  0  0  0  0
   -2.6342   -1.6441   -0.8444 H   0  0  0  0  0  0  0  0  0  0  0  0
   -1.1185   -1.3187   -1.6702 H   0  0  0  0  0  0  0  0  0  0  0  0
   -1.1551   -1.7591    0.0664 H   0  0  0  0  0  0  0  0  0  0  0  0
    1.4320   -2.3257    1.0910 H   0  0  0  0  0  0  0  0  0  0  0  0
  1  6  1  0  0  0  0
  2  9  1  0  0  0  0
  2 20  1  0  0  0  0
  3  9  2  0  0  0  0
  4  5  1  0  0  0  0
  4  7  1  0  0  0  0
  4  8  1  0  0  0  0
  4 10  1  0  0  0  0
  5  6  1  0  0  0  0
  5 11  1  0  0  0  0
  5 12  1  0  0  0  0
  6  9  1  0  0  0  0
  6 13  1  0  0  0  0
  7 14  1  0  0  0  0
  7 15  1  0  0  0  0
  7 16  1  0  0  0  0
  8 17  1  0  0  0  0
  8 18  1  0  0  0  0
  8 19  1  0  0  0  0
M  END
> <PUBCHEM_COMPOUND_CID>
169071

> <PUBCHEM_CONFORMER_RMSD>
0.6

> <PUBCHEM_CONFORMER_DIVERSEORDER>
1
3
4
2
5

> <PUBCHEM_MMFF94_PARTIAL_CHARGES>
6
1 -0.29
2 -0.65
20 0.5
3 -0.57
6 0.35
9 0.66

> <PUBCHEM_EFFECTIVE_ROTOR_COUNT>
3

> <PUBCHEM_PHARMACOPHORE_FEATURES>
4
1 2 acceptor
1 3 acceptor
3 2 3 9 anion
3 4 7 8 hydrophobe

> <PUBCHEM_HEAVY_ATOM_COUNT>
9

> <PUBCHEM_ATOM_DEF_STEREO_COUNT>
0

> <PUBCHEM_ATOM_UDEF_STEREO_COUNT>
1

> <PUBCHEM_BOND_DEF_STEREO_COUNT>
0

> <PUBCHEM_BOND_UDEF_STEREO_COUNT>
0

> <PUBCHEM_ISOTOPIC_ATOM_COUNT>
0

> <PUBCHEM_COMPONENT_COUNT>
1

> <PUBCHEM_CACTVS_TAUTO_COUNT>
1

> <PUBCHEM_CONFORMER_ID>
0002946F00000001

> <PUBCHEM_MMFF94_ENERGY>
15.0554

> <PUBCHEM_FEATURE_SELFOVERLAP>
20.356

> <PUBCHEM_SHAPE_FINGERPRINT>
137420 1 16402610627749417208
18185500 45 18337941325242177591
20653085 51 16913720970158742328
21040471 1 18048874388361685820
21922407 69 17703781574362441897
23552333 60 18268974540215768255
23552423 10 18408315601353374407
24536 1 17846203441437963999
29004967 10 17749396961645509401
5084963 1 18120922065230436972

> <PUBCHEM_SHAPE_MULTIPOLES>
175.35
2.95
1.73
1.08
0.43
0.17
0.18
-0.69
0.16
-0.74
-0.01
0.19
0.21
-0.32

> <PUBCHEM_SHAPE_SELFOVERLAP>
318.156

> <PUBCHEM_SHAPE_VOLUME>
113.2

> <PUBCHEM_COORDINATE_TYPE>
2
5
10

$$$$
