198063
  -OEChem-10241303113D

 23 25  0     0  0  0  0  0  0999 V2000
   -4.2608   -0.6434    0.0017 F   0  0  0  0  0  0  0  0  0  0  0  0
   -3.3813    1.0235    1.0857 F   0  0  0  0  0  0  0  0  0  0  0  0
   -3.3586    1.0116   -1.0946 F   0  0  0  0  0  0  0  0  0  0  0  0
   -0.6955    0.1778    0.0004 N   0  0  0  0  0  0  0  0  0  0  0  0
   -0.3296   -1.9935    0.0006 N   0  0  0  0  0  0  0  0  0  0  0  0
   -1.6937   -1.7748    0.0011 N   0  0  0  0  0  0  0  0  0  0  0  0
    0.2607   -0.8181    0.0004 C   0  0  0  0  0  0  0  0  0  0  0  0
    1.6723   -0.4482    0.0004 C   0  0  0  0  0  0  0  0  0  0  0  0
    1.9876    0.9354    0.0002 C   0  0  0  0  0  0  0  0  0  0  0  0
   -1.8937   -0.4751    0.0006 C   0  0  0  0  0  0  0  0  0  0  0  0
   -0.3867    1.5310    0.0002 C   0  0  0  0  0  0  0  0  0  0  0  0
    0.8955    1.9381    0.0002 C   0  0  0  0  0  0  0  0  0  0  0  0
    2.6918   -1.4016    0.0002 C   0  0  0  0  0  0  0  0  0  0  0  0
    3.3265    1.3351    0.0003 C   0  0  0  0  0  0  0  0  0  0  0  0
   -3.1981    0.2143    0.0010 C   0  0  0  0  0  0  0  0  0  0  0  0
    4.0239   -0.9863    0.0007 C   0  0  0  0  0  0  0  0  0  0  0  0
    4.3397    0.3742    0.0008 C   0  0  0  0  0  0  0  0  0  0  0  0
   -1.2071    2.2388    0.0003 H   0  0  0  0  0  0  0  0  0  0  0  0
    1.1506    2.9918    0.0001 H   0  0  0  0  0  0  0  0  0  0  0  0
    2.4660   -2.4646    0.0001 H   0  0  0  0  0  0  0  0  0  0  0  0
    3.5949    2.3884    0.0003 H   0  0  0  0  0  0  0  0  0  0  0  0
    4.8204   -1.7252    0.0008 H   0  0  0  0  0  0  0  0  0  0  0  0
    5.3802    0.6866    0.0011 H   0  0  0  0  0  0  0  0  0  0  0  0
  1 15  1  0  0  0  0
  2 15  1  0  0  0  0
  3 15  1  0  0  0  0
  4  7  1  0  0  0  0
  4 10  1  0  0  0  0
  4 11  1  0  0  0  0
  5  6  1  0  0  0  0
  5  7  2  0  0  0  0
  6 10  2  0  0  0  0
  7  8  1  0  0  0  0
  8  9  1  0  0  0  0
  8 13  2  0  0  0  0
  9 12  1  0  0  0  0
  9 14  2  0  0  0  0
 10 15  1  0  0  0  0
 11 12  2  0  0  0  0
 11 18  1  0  0  0  0
 12 19  1  0  0  0  0
 13 16  1  0  0  0  0
 13 20  1  0  0  0  0
 14 17  1  0  0  0  0
 14 21  1  0  0  0  0
 16 17  2  0  0  0  0
 16 22  1  0  0  0  0
 17 23  1  0  0  0  0
M  END
> <PUBCHEM_COMPOUND_CID>
198063

> <PUBCHEM_CONFORMER_RMSD>
0.6

> <PUBCHEM_CONFORMER_DIVERSEORDER>
1

> <PUBCHEM_MMFF94_PARTIAL_CHARGES>
23
1 -0.34
10 0.01
11 -0.18
12 -0.18
13 -0.15
14 -0.15
15 1.2
16 -0.15
17 -0.15
18 0.15
19 0.15
2 -0.34
20 0.15
21 0.15
22 0.15
23 0.15
3 -0.34
4 0.33
5 -0.34
6 -0.34
7 0.13
8 0.05
9 0.03

> <PUBCHEM_EFFECTIVE_ROTOR_COUNT>
1

> <PUBCHEM_PHARMACOPHORE_FEATURES>
5
3 4 5 7 cation
3 4 6 10 cation
5 4 5 6 7 10 rings
6 4 7 8 9 11 12 rings
6 8 9 13 14 16 17 rings

> <PUBCHEM_HEAVY_ATOM_COUNT>
17

> <PUBCHEM_ATOM_DEF_STEREO_COUNT>
0

> <PUBCHEM_ATOM_UDEF_STEREO_COUNT>
0

> <PUBCHEM_BOND_DEF_STEREO_COUNT>
0

> <PUBCHEM_BOND_UDEF_STEREO_COUNT>
0

> <PUBCHEM_ISOTOPIC_ATOM_COUNT>
0

> <PUBCHEM_COMPONENT_COUNT>
1

> <PUBCHEM_CACTVS_TAUTO_COUNT>
1

> <PUBCHEM_CONFORMER_ID>
000305AF00000001

> <PUBCHEM_MMFF94_ENERGY>
30.2681

> <PUBCHEM_FEATURE_SELFOVERLAP>
27.979

> <PUBCHEM_SHAPE_FINGERPRINT>
10130415 120 18409727357330364464
10608611 8 18337667628530452212
10967382 1 18410573976967795878
10980938 120 18407477756413515970
11132069 177 18411410726854641072
11471102 20 18410289216409597740
11543360 7 15769484430521292364
12032990 46 18409452470490730698
12236239 1 17847061069625142889
13140716 1 18410574024233684986
13221675 6 18409448081308402370
13380535 76 18412546526429343134
13675066 3 18114183055352687552
13690532 89 18410855464433691611
14115302 16 18187093875030458126
14144814 61 18412265029761154496
14993402 34 18412543210487347503
15196674 1 18410856551102719428
15309172 13 18410579470014774251
15375358 24 18413102879623811818
15442244 35 18412546487779554976
15536298 74 18343302582941896792
15848702 151 17774728532760162718
16945 1 18410573942576370018
18186145 218 18412267198751254972
200 152 17704352156641566222
20510252 161 18200875063489460312
20645477 70 18342177743908281558
21267235 1 18411146843942954210
21501502 16 18193557989446659534
23184049 59 18411426089525338968
2334 1 18266458896144939526
23402539 116 18272642424805989996
23402655 69 18342452625571888789
23463225 33 18409450284689883244
23493267 7 17458622259794864249
23559900 14 18342458162902863496
2748010 2 18339083812476267230
335352 9 18266459802177070748
34934 24 18410847794218160922
5104073 3 18410575088963328441
528886 8 18411976988095991842
537710 114 18410579500248447748
53812653 166 18341890848566506368
57005193 9 18410846664536351514
69090 78 18413103987282606943
7364860 26 18270118066763794032
74978 22 18340769363553559056
8809292 202 18261115205304462498
9709674 26 18412831304352143982

> <PUBCHEM_SHAPE_MULTIPOLES>
313.09
7.33
1.9
0.68
0.95
0.03
0
-0.08
0.01
-0.3
0
0.27
-0.11
0

> <PUBCHEM_SHAPE_SELFOVERLAP>
701.924

> <PUBCHEM_SHAPE_VOLUME>
168

> <PUBCHEM_COORDINATE_TYPE>
2
5
10

$$$$
