441071
  -OEChem-10241303043D

 47 53  0     1  0  0  0  0  0999 V2000
   -2.5993    2.1341    0.4554 O   0  0  0  0  0  0  0  0  0  0  0  0
    1.9412    3.3988    0.3800 O   0  0  0  0  0  0  0  0  0  0  0  0
   -1.4213   -2.6185    0.3746 N   0  0  1  0  0  0  0  0  0  0  0  0
    1.1208    1.2175    0.3841 N   0  0  0  0  0  0  0  0  0  0  0  0
    0.4693   -1.1274    0.3492 C   0  0  2  0  0  0  0  0  0  0  0  0
   -0.0618    0.3421    0.3867 C   0  0  2  0  0  0  0  0  0  0  0  0
   -0.3556   -2.0939   -0.5239 C   0  0  2  0  0  0  0  0  0  0  0  0
   -0.8885    0.8281   -0.8154 C   0  0  1  0  0  0  0  0  0  0  0  0
   -1.8239   -0.2572   -1.3686 C   0  0  1  0  0  0  0  0  0  0  0  0
   -0.9222   -1.4346   -1.7837 C   0  0  0  0  0  0  0  0  0  0  0  0
    0.3539   -1.7957    1.7261 C   0  0  0  0  0  0  0  0  0  0  0  0
    1.9222   -0.9052    0.0127 C   0  0  0  0  0  0  0  0  0  0  0  0
   -1.0888   -2.2635    1.7617 C   0  0  0  0  0  0  0  0  0  0  0  0
   -1.4825    2.2078   -0.4406 C   0  0  2  0  0  0  0  0  0  0  0  0
   -2.8663   -0.7424   -0.3800 C   0  0  0  0  0  0  0  0  0  0  0  0
   -2.7826   -2.2027    0.0014 C   0  0  0  0  0  0  0  0  0  0  0  0
    2.2671    0.4489    0.1206 C   0  0  0  0  0  0  0  0  0  0  0  0
   -0.4356    3.1049    0.2790 C   0  0  0  0  0  0  0  0  0  0  0  0
    1.0085    2.5971    0.3506 C   0  0  0  0  0  0  0  0  0  0  0  0
   -3.7639    0.0877    0.1734 C   0  0  0  0  0  0  0  0  0  0  0  0
    2.8839   -1.8532   -0.3098 C   0  0  0  0  0  0  0  0  0  0  0  0
   -3.7744    1.5537   -0.0979 C   0  0  0  0  0  0  0  0  0  0  0  0
    3.5678    0.8790   -0.0930 C   0  0  0  0  0  0  0  0  0  0  0  0
    4.1963   -1.4304   -0.5266 C   0  0  0  0  0  0  0  0  0  0  0  0
    4.5356   -0.0750   -0.4161 C   0  0  0  0  0  0  0  0  0  0  0  0
   -0.6115    0.5320    1.3182 H   0  0  0  0  0  0  0  0  0  0  0  0
    0.2554   -2.9530   -0.8263 H   0  0  0  0  0  0  0  0  0  0  0  0
   -0.1910    1.0465   -1.6419 H   0  0  0  0  0  0  0  0  0  0  0  0
   -2.3277    0.1174   -2.2688 H   0  0  0  0  0  0  0  0  0  0  0  0
   -1.4896   -2.1636   -2.3771 H   0  0  0  0  0  0  0  0  0  0  0  0
   -0.1060   -1.0927   -2.4325 H   0  0  0  0  0  0  0  0  0  0  0  0
    0.5896   -1.1235    2.5586 H   0  0  0  0  0  0  0  0  0  0  0  0
    1.0224   -2.6636    1.8043 H   0  0  0  0  0  0  0  0  0  0  0  0
   -1.2132   -3.1257    2.4246 H   0  0  0  0  0  0  0  0  0  0  0  0
   -1.7206   -1.4545    2.1484 H   0  0  0  0  0  0  0  0  0  0  0  0
   -1.8117    2.7223   -1.3526 H   0  0  0  0  0  0  0  0  0  0  0  0
   -3.4838   -2.4530    0.8080 H   0  0  0  0  0  0  0  0  0  0  0  0
   -3.1114   -2.8068   -0.8542 H   0  0  0  0  0  0  0  0  0  0  0  0
   -0.7450    3.3155    1.3108 H   0  0  0  0  0  0  0  0  0  0  0  0
   -0.4078    4.0719   -0.2395 H   0  0  0  0  0  0  0  0  0  0  0  0
   -4.4839   -0.2923    0.8927 H   0  0  0  0  0  0  0  0  0  0  0  0
    2.6347   -2.9066   -0.3810 H   0  0  0  0  0  0  0  0  0  0  0  0
   -3.8933    1.7884   -1.1619 H   0  0  0  0  0  0  0  0  0  0  0  0
   -4.6291    1.9980    0.4233 H   0  0  0  0  0  0  0  0  0  0  0  0
    3.8553    1.9213   -0.0261 H   0  0  0  0  0  0  0  0  0  0  0  0
    4.9633   -2.1580   -0.7778 H   0  0  0  0  0  0  0  0  0  0  0  0
    5.5624    0.2365   -0.5885 H   0  0  0  0  0  0  0  0  0  0  0  0
  1 14  1  0  0  0  0
  1 22  1  0  0  0  0
  2 19  2  0  0  0  0
  3  7  1  0  0  0  0
  3 13  1  0  0  0  0
  3 16  1  0  0  0  0
  4  6  1  0  0  0  0
  4 17  1  0  0  0  0
  4 19  1  0  0  0  0
  5  6  1  0  0  0  0
  5  7  1  0  0  0  0
  5 11  1  0  0  0  0
  5 12  1  0  0  0  0
  6  8  1  0  0  0  0
  6 26  1  0  0  0  0
  7 10  1  0  0  0  0
  7 27  1  0  0  0  0
  8  9  1  0  0  0  0
  8 14  1  0  0  0  0
  8 28  1  0  0  0  0
  9 10  1  0  0  0  0
  9 15  1  0  0  0  0
  9 29  1  0  0  0  0
 10 30  1  0  0  0  0
 10 31  1  0  0  0  0
 11 13  1  0  0  0  0
 11 32  1  0  0  0  0
 11 33  1  0  0  0  0
 12 17  1  0  0  0  0
 12 21  2  0  0  0  0
 13 34  1  0  0  0  0
 13 35  1  0  0  0  0
 14 18  1  0  0  0  0
 14 36  1  0  0  0  0
 15 16  1  0  0  0  0
 15 20  2  0  0  0  0
 16 37  1  0  0  0  0
 16 38  1  0  0  0  0
 17 23  2  0  0  0  0
 18 19  1  0  0  0  0
 18 39  1  0  0  0  0
 18 40  1  0  0  0  0
 20 22  1  0  0  0  0
 20 41  1  0  0  0  0
 21 24  1  0  0  0  0
 21 42  1  0  0  0  0
 22 43  1  0  0  0  0
 22 44  1  0  0  0  0
 23 25  1  0  0  0  0
 23 45  1  0  0  0  0
 24 25  2  0  0  0  0
 24 46  1  0  0  0  0
 25 47  1  0  0  0  0
M  END
> <PUBCHEM_COMPOUND_CID>
441071

> <PUBCHEM_CONFORMER_RMSD>
0.6

> <PUBCHEM_CONFORMER_DIVERSEORDER>
1

> <PUBCHEM_MMFF94_PARTIAL_CHARGES>
27
1 -0.56
12 -0.14
13 0.27
14 0.28
15 -0.28
16 0.41
17 0.12
18 0.06
19 0.57
2 -0.57
20 -0.29
21 -0.15
22 0.42
23 -0.15
24 -0.15
25 -0.15
3 -0.81
4 -0.48
41 0.15
42 0.15
45 0.15
46 0.15
47 0.15
5 0.14
6 0.3
7 0.27
9 0.14

> <PUBCHEM_EFFECTIVE_ROTOR_COUNT>
1.4

> <PUBCHEM_PHARMACOPHORE_FEATURES>
10
1 1 acceptor
1 2 acceptor
1 3 cation
5 3 5 7 11 13 rings
5 4 5 6 12 17 rings
6 12 17 21 23 24 25 rings
6 3 7 9 10 15 16 rings
6 4 6 8 14 18 19 rings
6 5 6 7 8 9 10 rings
7 1 8 9 14 15 20 22 rings

> <PUBCHEM_HEAVY_ATOM_COUNT>
25

> <PUBCHEM_ATOM_DEF_STEREO_COUNT>
6

> <PUBCHEM_ATOM_UDEF_STEREO_COUNT>
0

> <PUBCHEM_BOND_DEF_STEREO_COUNT>
0

> <PUBCHEM_BOND_UDEF_STEREO_COUNT>
0

> <PUBCHEM_ISOTOPIC_ATOM_COUNT>
0

> <PUBCHEM_COMPONENT_COUNT>
1

> <PUBCHEM_CACTVS_TAUTO_COUNT>
1

> <PUBCHEM_CONFORMER_ID>
0006BAEF00000001

> <PUBCHEM_MMFF94_ENERGY>
105.1841

> <PUBCHEM_FEATURE_SELFOVERLAP>
52.967

> <PUBCHEM_SHAPE_FINGERPRINT>
10675989 125 16676958303780680693
10863032 1 18341332206127750631
10948715 1 18192998114890301507
10967382 1 18339641122794672524
1100329 8 18411985736892178481
11680986 33 18192995052425736185
12011746 2 18337388241329698045
12035758 1 18409736187413925496
12156800 1 16969214245171654348
12553582 1 18411971451830484164
12788726 201 18267871571434718336
13027679 85 18337112370974007077
13140716 1 18121489413314746328
14223421 5 18049723215622395889
14251751 93 18122622752004491300
14787075 74 18260836977317583743
14790565 3 18123760755061518105
15209289 33 18407761434560620081
16945 1 18268696354783144798
17492 54 18336543811608940917
19591789 44 18195247702484489029
19930381 70 17114940548647892031
20691752 17 18042107895051610157
20775438 99 16978377790438387583
20905425 154 17549541808071144543
22802520 49 18265614479672698138
2334 1 17689143934817641236
23402539 116 18341323393340052142
23419403 2 17683507799749178903
23558518 356 18190456258560342297
23559900 14 18412542086245165494
238 59 16682273918461219967
2748010 2 17832698354941678756
335352 9 18339923718768468852
34934 24 18340196397778770348
350125 39 18410299138011164525
4340502 62 17242752883240878553
70251023 43 17983278602691168943
7226269 152 18262785295174598696
81228 2 18411420579678676776
90525 40 18056190276581374133
9709674 26 18341336609086518198
9981440 41 17478307091329358992

> <PUBCHEM_SHAPE_MULTIPOLES>
492.79
6.14
3.57
1.19
3.33
1.77
0.06
-0.11
-0.92
-0.6
0.75
-0.31
-0.68
0.3

> <PUBCHEM_SHAPE_SELFOVERLAP>
1134.734

> <PUBCHEM_SHAPE_VOLUME>
249.4

> <PUBCHEM_COORDINATE_TYPE>
2
5
10

$$$$
5979
  -OEChem-10241303043D

 47 53  0     1  0  0  0  0  0999 V2000
    2.9214   -2.1885   -0.0211 O   0  0  0  0  0  0  0  0  0  0  0  0
   -1.7168   -3.4540    0.4792 O   0  0  0  0  0  0  0  0  0  0  0  0
    1.1214    2.7606    0.2756 N   0  0  1  0  0  0  0  0  0  0  0  0
   -1.1516   -1.3153   -0.2233 N   0  0  0  0  0  0  0  0  0  0  0  0
   -0.4710    0.9627   -0.1353 C   0  0  2  0  0  0  0  0  0  0  0  0
   -0.2092   -0.3888   -0.8271 C   0  0  1  0  0  0  0  0  0  0  0  0
    0.3544    2.0891   -0.8192 C   0  0  2  0  0  0  0  0  0  0  0  0
    1.2242   -0.8343   -0.9733 C   0  0  1  0  0  0  0  0  0  0  0  0
    2.1631    0.3706   -1.1980 C   0  0  1  0  0  0  0  0  0  0  0  0
    1.3493    1.5192   -1.8599 C   0  0  0  0  0  0  0  0  0  0  0  0
   -0.1031    1.0719    1.3642 C   0  0  0  0  0  0  0  0  0  0  0  0
   -1.9893    0.8288   -0.1604 C   0  0  0  0  0  0  0  0  0  0  0  0
    0.3733    2.5011    1.5063 C   0  0  0  0  0  0  0  0  0  0  0  0
    1.5497   -1.8397    0.1218 C   0  0  1  0  0  0  0  0  0  0  0  0
    2.8115    0.8716    0.0696 C   0  0  0  0  0  0  0  0  0  0  0  0
    2.5416    2.3352    0.3784 C   0  0  0  0  0  0  0  0  0  0  0  0
   -2.3288   -0.5539   -0.0588 C   0  0  0  0  0  0  0  0  0  0  0  0
    0.5939   -3.0337   -0.0620 C   0  0  0  0  0  0  0  0  0  0  0  0
   -0.8862   -2.6331    0.0923 C   0  0  0  0  0  0  0  0  0  0  0  0
    3.5460    0.0901    0.8849 C   0  0  0  0  0  0  0  0  0  0  0  0
   -2.9641    1.8044   -0.0978 C   0  0  0  0  0  0  0  0  0  0  0  0
    3.7917   -1.4028    0.8064 C   0  0  0  0  0  0  0  0  0  0  0  0
   -3.6254   -0.9695    0.1577 C   0  0  0  0  0  0  0  0  0  0  0  0
   -4.2860    1.3872    0.0817 C   0  0  0  0  0  0  0  0  0  0  0  0
   -4.6100    0.0212    0.2180 C   0  0  0  0  0  0  0  0  0  0  0  0
   -0.5740   -0.3080   -1.8696 H   0  0  0  0  0  0  0  0  0  0  0  0
   -0.3042    2.8255   -1.2925 H   0  0  0  0  0  0  0  0  0  0  0  0
    1.2834   -1.3954   -1.9212 H   0  0  0  0  0  0  0  0  0  0  0  0
    2.9610    0.0787   -1.8941 H   0  0  0  0  0  0  0  0  0  0  0  0
    2.0169    2.3087   -2.2297 H   0  0  0  0  0  0  0  0  0  0  0  0
    0.8177    1.1558   -2.7481 H   0  0  0  0  0  0  0  0  0  0  0  0
    0.6962    0.3919    1.6544 H   0  0  0  0  0  0  0  0  0  0  0  0
   -0.9324    0.8831    2.0567 H   0  0  0  0  0  0  0  0  0  0  0  0
   -0.4839    3.1841    1.5537 H   0  0  0  0  0  0  0  0  0  0  0  0
    0.9562    2.6607    2.4196 H   0  0  0  0  0  0  0  0  0  0  0  0
    1.3711   -1.4559    1.1310 H   0  0  0  0  0  0  0  0  0  0  0  0
    2.9443    2.6162    1.3601 H   0  0  0  0  0  0  0  0  0  0  0  0
    3.1196    2.9393   -0.3338 H   0  0  0  0  0  0  0  0  0  0  0  0
    0.8261   -3.7960    0.6911 H   0  0  0  0  0  0  0  0  0  0  0  0
    0.7302   -3.5070   -1.0413 H   0  0  0  0  0  0  0  0  0  0  0  0
    3.9947    0.5576    1.7606 H   0  0  0  0  0  0  0  0  0  0  0  0
   -2.7173    2.8587   -0.1457 H   0  0  0  0  0  0  0  0  0  0  0  0
    4.8173   -1.5792    0.4662 H   0  0  0  0  0  0  0  0  0  0  0  0
    3.7187   -1.8143    1.8204 H   0  0  0  0  0  0  0  0  0  0  0  0
   -3.8947   -2.0148    0.2460 H   0  0  0  0  0  0  0  0  0  0  0  0
   -5.0784    2.1293    0.1412 H   0  0  0  0  0  0  0  0  0  0  0  0
   -5.6481   -0.2648    0.3698 H   0  0  0  0  0  0  0  0  0  0  0  0
  1 14  1  0  0  0  0
  1 22  1  0  0  0  0
  2 19  2  0  0  0  0
  3  7  1  0  0  0  0
  3 13  1  0  0  0  0
  3 16  1  0  0  0  0
  4  6  1  0  0  0  0
  4 17  1  0  0  0  0
  4 19  1  0  0  0  0
  5  6  1  0  0  0  0
  5  7  1  0  0  0  0
  5 11  1  0  0  0  0
  5 12  1  0  0  0  0
  6  8  1  0  0  0  0
  6 26  1  0  0  0  0
  7 10  1  0  0  0  0
  7 27  1  0  0  0  0
  8  9  1  0  0  0  0
  8 14  1  0  0  0  0
  8 28  1  0  0  0  0
  9 10  1  0  0  0  0
  9 15  1  0  0  0  0
  9 29  1  0  0  0  0
 10 30  1  0  0  0  0
 10 31  1  0  0  0  0
 11 13  1  0  0  0  0
 11 32  1  0  0  0  0
 11 33  1  0  0  0  0
 12 17  1  0  0  0  0
 12 21  2  0  0  0  0
 13 34  1  0  0  0  0
 13 35  1  0  0  0  0
 14 18  1  0  0  0  0
 14 36  1  0  0  0  0
 15 16  1  0  0  0  0
 15 20  2  0  0  0  0
 16 37  1  0  0  0  0
 16 38  1  0  0  0  0
 17 23  2  0  0  0  0
 18 19  1  0  0  0  0
 18 39  1  0  0  0  0
 18 40  1  0  0  0  0
 20 22  1  0  0  0  0
 20 41  1  0  0  0  0
 21 24  1  0  0  0  0
 21 42  1  0  0  0  0
 22 43  1  0  0  0  0
 22 44  1  0  0  0  0
 23 25  1  0  0  0  0
 23 45  1  0  0  0  0
 24 25  2  0  0  0  0
 24 46  1  0  0  0  0
 25 47  1  0  0  0  0
M  END
> <PUBCHEM_COMPOUND_CID>
5979

> <PUBCHEM_CONFORMER_RMSD>
0.6

> <PUBCHEM_CONFORMER_DIVERSEORDER>
1

> <PUBCHEM_MMFF94_PARTIAL_CHARGES>
27
1 -0.56
12 -0.14
13 0.27
14 0.28
15 -0.28
16 0.41
17 0.12
18 0.06
19 0.57
2 -0.57
20 -0.29
21 -0.15
22 0.42
23 -0.15
24 -0.15
25 -0.15
3 -0.81
4 -0.48
41 0.15
42 0.15
45 0.15
46 0.15
47 0.15
5 0.14
6 0.3
7 0.27
9 0.14

> <PUBCHEM_EFFECTIVE_ROTOR_COUNT>
1.4

> <PUBCHEM_PHARMACOPHORE_FEATURES>
10
1 1 acceptor
1 2 acceptor
1 3 cation
5 3 5 7 11 13 rings
5 4 5 6 12 17 rings
6 12 17 21 23 24 25 rings
6 3 7 9 10 15 16 rings
6 4 6 8 14 18 19 rings
6 5 6 7 8 9 10 rings
7 1 8 9 14 15 20 22 rings

> <PUBCHEM_HEAVY_ATOM_COUNT>
25

> <PUBCHEM_ATOM_DEF_STEREO_COUNT>
4

> <PUBCHEM_ATOM_UDEF_STEREO_COUNT>
2

> <PUBCHEM_BOND_DEF_STEREO_COUNT>
0

> <PUBCHEM_BOND_UDEF_STEREO_COUNT>
0

> <PUBCHEM_ISOTOPIC_ATOM_COUNT>
0

> <PUBCHEM_COMPONENT_COUNT>
1

> <PUBCHEM_CACTVS_TAUTO_COUNT>
1

> <PUBCHEM_CONFORMER_ID>
0000175B00000001

> <PUBCHEM_MMFF94_ENERGY>
128.6876

> <PUBCHEM_FEATURE_SELFOVERLAP>
52.869

> <PUBCHEM_SHAPE_FINGERPRINT>
10616163 171 18120938574878780171
10759866 29 18042979846464117660
10863032 1 18265329693492674888
10948715 1 18125438854897753704
10967382 1 18410856529670158999
1100329 8 18410290289835469370
11112241 14 16627967798452798928
11370993 70 18410568509363781773
11578080 2 17460005510031648452
12011746 2 18341333284691848382
12035759 4 18118715169695211260
12592029 89 18409456869027690265
12633257 1 18337934767169891610
12788726 201 17845945043527010816
12930653 34 17765702912491136784
13132413 78 18270393876435651869
13140716 1 18051133889088448371
14178342 30 17975965785155838376
14223421 5 18052259784373152431
14787075 74 18201707457841188137
14790565 3 18048037656193202508
16945 1 18337398260823689773
1813 80 17240476975654246508
19591789 44 18410292540740937907
20028762 73 18272928341428654055
20600515 1 18409168792617660908
20691752 17 17603583032684426495
20905425 154 17908996743747776414
21421861 104 18198925637842041889
23184049 59 18335697204687592870
2334 1 18338804420469011487
23419403 2 18122033469775877108
23558518 356 17973158714769489411
23559900 14 18201450168463729228
2748010 2 18264777558145598879
335352 9 18338797814598268439
350125 39 18265336290741873967
392239 28 18129089044348985746
394222 165 17460058329708135932
484985 159 14500284829676107162
484989 97 18335984276782741447
5104073 3 18409738348526462273
6443956 14 18194122906453060237
7364860 26 18412546474926360119

> <PUBCHEM_SHAPE_MULTIPOLES>
492.79
6.22
3.52
1.16
4.01
1.49
-0.12
-0.04
1
-0.59
0.5
-0.6
-0.53
-0.05

> <PUBCHEM_SHAPE_SELFOVERLAP>
1135.306

> <PUBCHEM_SHAPE_VOLUME>
247.5

> <PUBCHEM_COORDINATE_TYPE>
2
5
10

$$$$
5702135
  -OEChem-10241303043D

 47 53  0     1  0  0  0  0  0999 V2000
   -2.9021   -2.2216    0.0970 O   0  0  0  0  0  0  0  0  0  0  0  0
    1.7431   -3.3926   -0.6419 O   0  0  0  0  0  0  0  0  0  0  0  0
   -1.2359    2.7768   -0.3792 N   0  0  1  0  0  0  0  0  0  0  0  0
    1.2085   -1.2916    0.1719 N   0  0  0  0  0  0  0  0  0  0  0  0
    0.5900    1.0087    0.0663 C   0  0  2  0  0  0  0  0  0  0  0  0
    0.2656   -0.3756    0.7686 C   0  0  1  0  0  0  0  0  0  0  0  0
   -0.5113    1.9217    0.6039 C   0  0  2  0  0  0  0  0  0  0  0  0
   -1.1979   -0.8432    0.9851 C   0  0  1  0  0  0  0  0  0  0  0  0
   -2.2273    0.3292    1.3190 C   0  0  1  0  0  0  0  0  0  0  0  0
   -1.3443    1.5209    1.8504 C   0  0  0  0  0  0  0  0  0  0  0  0
    0.3074    1.1667   -1.4905 C   0  0  0  0  0  0  0  0  0  0  0  0
    2.0795    0.8588    0.1929 C   0  0  0  0  0  0  0  0  0  0  0  0
   -0.5031    2.4907   -1.6446 C   0  0  0  0  0  0  0  0  0  0  0  0
   -1.5580   -1.8053   -0.1344 C   0  0  1  0  0  0  0  0  0  0  0  0
   -3.0099    0.8401    0.0637 C   0  0  0  0  0  0  0  0  0  0  0  0
   -2.7084    2.3273   -0.3898 C   0  0  0  0  0  0  0  0  0  0  0  0
    2.4020   -0.5339    0.0703 C   0  0  0  0  0  0  0  0  0  0  0  0
   -0.5630   -2.9844   -0.0662 C   0  0  0  0  0  0  0  0  0  0  0  0
    0.9217   -2.5836   -0.2114 C   0  0  0  0  0  0  0  0  0  0  0  0
   -3.7346    0.0212   -0.7215 C   0  0  0  0  0  0  0  0  0  0  0  0
    3.0682    1.8191    0.2106 C   0  0  0  0  0  0  0  0  0  0  0  0
   -3.8825   -1.4822   -0.6430 C   0  0  0  0  0  0  0  0  0  0  0  0
    3.7012   -0.9637   -0.0926 C   0  0  0  0  0  0  0  0  0  0  0  0
    4.3905    1.3822    0.0882 C   0  0  0  0  0  0  0  0  0  0  0  0
    4.7006    0.0143   -0.0728 C   0  0  0  0  0  0  0  0  0  0  0  0
    0.6291   -0.2847    1.8119 H   0  0  0  0  0  0  0  0  0  0  0  0
    0.1154    2.7053    1.0648 H   0  0  0  0  0  0  0  0  0  0  0  0
   -1.1905   -1.4397    1.9128 H   0  0  0  0  0  0  0  0  0  0  0  0
   -2.9389    0.0141    2.0905 H   0  0  0  0  0  0  0  0  0  0  0  0
   -1.9707    2.3479    2.2060 H   0  0  0  0  0  0  0  0  0  0  0  0
   -0.7166    1.2142    2.6941 H   0  0  0  0  0  0  0  0  0  0  0  0
   -0.3078    0.3351   -1.8449 H   0  0  0  0  0  0  0  0  0  0  0  0
    1.2086    1.2088   -2.1125 H   0  0  0  0  0  0  0  0  0  0  0  0
    0.2093    3.3105   -1.7970 H   0  0  0  0  0  0  0  0  0  0  0  0
   -1.1560    2.4653   -2.5231 H   0  0  0  0  0  0  0  0  0  0  0  0
   -1.4638   -1.3507   -1.1266 H   0  0  0  0  0  0  0  0  0  0  0  0
   -3.1381    2.5339   -1.3771 H   0  0  0  0  0  0  0  0  0  0  0  0
   -3.2377    2.9847    0.3119 H   0  0  0  0  0  0  0  0  0  0  0  0
   -0.8039   -3.6930   -0.8677 H   0  0  0  0  0  0  0  0  0  0  0  0
   -0.6768   -3.5336    0.8764 H   0  0  0  0  0  0  0  0  0  0  0  0
   -4.2209    0.4599   -1.5918 H   0  0  0  0  0  0  0  0  0  0  0  0
    2.8341    2.8754    0.2714 H   0  0  0  0  0  0  0  0  0  0  0  0
   -4.8652   -1.7251   -0.2259 H   0  0  0  0  0  0  0  0  0  0  0  0
   -3.8659   -1.8789   -1.6654 H   0  0  0  0  0  0  0  0  0  0  0  0
    3.9596   -2.0106   -0.1937 H   0  0  0  0  0  0  0  0  0  0  0  0
    5.1970    2.1115    0.0910 H   0  0  0  0  0  0  0  0  0  0  0  0
    5.7412   -0.2833   -0.1789 H   0  0  0  0  0  0  0  0  0  0  0  0
  1 14  1  0  0  0  0
  1 22  1  0  0  0  0
  2 19  2  0  0  0  0
  3  7  1  0  0  0  0
  3 13  1  0  0  0  0
  3 16  1  0  0  0  0
  4  6  1  0  0  0  0
  4 17  1  0  0  0  0
  4 19  1  0  0  0  0
  5  6  1  0  0  0  0
  5  7  1  0  0  0  0
  5 11  1  0  0  0  0
  5 12  1  0  0  0  0
  6  8  1  0  0  0  0
  6 26  1  0  0  0  0
  7 10  1  0  0  0  0
  7 27  1  0  0  0  0
  8  9  1  0  0  0  0
  8 14  1  0  0  0  0
  8 28  1  0  0  0  0
  9 10  1  0  0  0  0
  9 15  1  0  0  0  0
  9 29  1  0  0  0  0
 10 30  1  0  0  0  0
 10 31  1  0  0  0  0
 11 13  1  0  0  0  0
 11 32  1  0  0  0  0
 11 33  1  0  0  0  0
 12 17  1  0  0  0  0
 12 21  2  0  0  0  0
 13 34  1  0  0  0  0
 13 35  1  0  0  0  0
 14 18  1  0  0  0  0
 14 36  1  0  0  0  0
 15 16  1  0  0  0  0
 15 20  2  0  0  0  0
 16 37  1  0  0  0  0
 16 38  1  0  0  0  0
 17 23  2  0  0  0  0
 18 19  1  0  0  0  0
 18 39  1  0  0  0  0
 18 40  1  0  0  0  0
 20 22  1  0  0  0  0
 20 41  1  0  0  0  0
 21 24  1  0  0  0  0
 21 42  1  0  0  0  0
 22 43  1  0  0  0  0
 22 44  1  0  0  0  0
 23 25  1  0  0  0  0
 23 45  1  0  0  0  0
 24 25  2  0  0  0  0
 24 46  1  0  0  0  0
 25 47  1  0  0  0  0
M  END
> <PUBCHEM_COMPOUND_CID>
5702135

> <PUBCHEM_CONFORMER_RMSD>
0.6

> <PUBCHEM_CONFORMER_DIVERSEORDER>
1

> <PUBCHEM_MMFF94_PARTIAL_CHARGES>
27
1 -0.56
12 -0.14
13 0.27
14 0.28
15 -0.28
16 0.41
17 0.12
18 0.06
19 0.57
2 -0.57
20 -0.29
21 -0.15
22 0.42
23 -0.15
24 -0.15
25 -0.15
3 -0.81
4 -0.48
41 0.15
42 0.15
45 0.15
46 0.15
47 0.15
5 0.14
6 0.3
7 0.27
9 0.14

> <PUBCHEM_EFFECTIVE_ROTOR_COUNT>
1.4

> <PUBCHEM_PHARMACOPHORE_FEATURES>
10
1 1 acceptor
1 2 acceptor
1 3 cation
5 3 5 7 11 13 rings
5 4 5 6 12 17 rings
6 12 17 21 23 24 25 rings
6 3 7 9 10 15 16 rings
6 4 6 8 14 18 19 rings
6 5 6 7 8 9 10 rings
7 1 8 9 14 15 20 22 rings

> <PUBCHEM_HEAVY_ATOM_COUNT>
25

> <PUBCHEM_ATOM_DEF_STEREO_COUNT>
3

> <PUBCHEM_ATOM_UDEF_STEREO_COUNT>
3

> <PUBCHEM_BOND_DEF_STEREO_COUNT>
0

> <PUBCHEM_BOND_UDEF_STEREO_COUNT>
0

> <PUBCHEM_ISOTOPIC_ATOM_COUNT>
0

> <PUBCHEM_COMPONENT_COUNT>
1

> <PUBCHEM_CACTVS_TAUTO_COUNT>
1

> <PUBCHEM_CONFORMER_ID>
005701F700000001

> <PUBCHEM_MMFF94_ENERGY>
160.8356

> <PUBCHEM_FEATURE_SELFOVERLAP>
52.401

> <PUBCHEM_SHAPE_FINGERPRINT>
104564 63 18410569604411552751
10616163 171 18411136922257101790
10863032 1 18270675347233543677
10948715 1 18192428572215211653
10967382 1 18411420574945683898
11370993 70 18411694366220672720
11578080 2 16662883614420468318
12422481 6 18266762241306040923
12633257 1 18270407075065182272
12839892 36 18266438967797529394
13132413 78 17907579477580628308
13140716 1 18338526334226759474
13224815 77 18334863831072232408
13583140 156 15554164775231519770
14223421 5 18339647724264998914
14787075 74 17916297414977774104
14790565 3 17980764836153843041
14955137 171 18192457326957604593
15196674 1 18411135861368394699
16945 1 18268721523338874808
17357779 13 18266164196895151741
17492 54 18189038928232351311
19591789 44 18411417281038200662
19930381 70 16248843617478263037
200 152 18059852882889079064
20510252 161 18272091651311608888
20775438 99 16114541106724354959
20905425 154 18341331089526139039
21330990 113 18335416876683240052
22182313 1 17970642787684213785
2334 1 18194971965795270994
23402539 116 18271238442851882343
23419403 2 15679636957415518362
23559900 14 18342732980205596424
23566358 2 18197494030504824759
238 59 16527194963185024797
2748010 2 18266752457106886818
335352 9 18267022748125791926
350125 39 18411134758463925248
463206 1 17984415510868080087
484989 97 17686892131411538047
57527585 103 17824291330069803387
9709674 26 18339646629169826710

> <PUBCHEM_SHAPE_MULTIPOLES>
492.79
6.59
3.47
1.18
3.99
1.39
-0.07
-0.15
0.5
-0.69
0.73
-0.56
-0.56
0.08

> <PUBCHEM_SHAPE_SELFOVERLAP>
1116.985

> <PUBCHEM_SHAPE_VOLUME>
252.8

> <PUBCHEM_COORDINATE_TYPE>
2
5
10

$$$$
