5281321
  -OEChem-10241302513D

 79 82  0     1  0  0  0  0  0999 V2000
    3.0119    0.2642   -2.2052 O   0  0  0  0  0  0  0  0  0  0  0  0
    3.2557   -2.9279   -0.0841 O   0  0  0  0  0  0  0  0  0  0  0  0
   -1.8637   -2.3721    2.2141 O   0  0  0  0  0  0  0  0  0  0  0  0
    5.4801   -1.5853   -0.4112 O   0  0  0  0  0  0  0  0  0  0  0  0
   -6.2516    0.2777    2.5244 O   0  0  0  0  0  0  0  0  0  0  0  0
   -6.8451    1.8477    0.3785 O   0  0  0  0  0  0  0  0  0  0  0  0
    7.4481    2.4961    1.4500 O   0  0  0  0  0  0  0  0  0  0  0  0
   -0.1224   -0.6436   -1.1543 C   0  0  2  0  0  0  0  0  0  0  0  0
    0.6587   -1.4401   -0.0467 C   0  0  1  0  0  0  0  0  0  0  0  0
   -1.5560   -1.2481   -1.2887 C   0  0  1  0  0  0  0  0  0  0  0  0
    2.0856   -0.8696   -0.2295 C   0  0  2  0  0  0  0  0  0  0  0  0
   -2.3668   -1.3137    0.0662 C   0  0  1  0  0  0  0  0  0  0  0  0
    0.8162   -0.8532   -2.3709 C   0  0  0  0  0  0  0  0  0  0  0  0
    2.2474   -0.8490   -1.7726 C   0  0  1  0  0  0  0  0  0  0  0  0
   -0.0086   -1.1888    1.3027 C   0  0  0  0  0  0  0  0  0  0  0  0
   -1.4432   -1.7063    1.2632 C   0  0  0  0  0  0  0  0  0  0  0  0
   -3.0730    0.0523    0.4253 C   0  0  1  0  0  0  0  0  0  0  0  0
   -0.1807    0.8999   -0.9331 C   0  0  0  0  0  0  0  0  0  0  0  0
   -2.3998   -0.6489   -2.4274 C   0  0  0  0  0  0  0  0  0  0  0  0
    0.7041   -2.9917   -0.2574 C   0  0  0  0  0  0  0  0  0  0  0  0
    3.2260   -1.6098    0.4635 C   0  0  1  0  0  0  0  0  0  0  0  0
   -3.4211   -2.4486   -0.1020 C   0  0  0  0  0  0  0  0  0  0  0  0
   -3.6373    0.8132   -0.7760 C   0  0  0  0  0  0  0  0  0  0  0  0
   -3.3279    0.4538   -2.0354 C   0  0  0  0  0  0  0  0  0  0  0  0
   -4.5620    1.9952   -0.4484 C   0  0  0  0  0  0  0  0  0  0  0  0
   -4.1225   -0.1040    1.5139 C   0  0  0  0  0  0  0  0  0  0  0  0
    2.9890   -1.7269    1.9676 C   0  0  0  0  0  0  0  0  0  0  0  0
    4.5803   -0.9599    0.1493 C   0  0  0  0  0  0  0  0  0  0  0  0
   -5.6796    1.4585    0.4614 C   0  0  0  0  0  0  0  0  0  0  0  0
   -5.3200    0.4912    1.5323 C   0  0  0  0  0  0  0  0  0  0  0  0
   -3.8739    3.1762    0.2735 C   0  0  0  0  0  0  0  0  0  0  0  0
   -5.1977    2.5666   -1.7313 C   0  0  0  0  0  0  0  0  0  0  0  0
    4.7709    0.4682    0.5491 C   0  0  0  0  0  0  0  0  0  0  0  0
    5.9274    1.1003    0.3017 C   0  0  0  0  0  0  0  0  0  0  0  0
    6.2645    2.5358    0.6439 C   0  0  0  0  0  0  0  0  0  0  0  0
    6.5953    3.2993   -0.6431 C   0  0  0  0  0  0  0  0  0  0  0  0
    5.1918    3.2915    1.4365 C   0  0  0  0  0  0  0  0  0  0  0  0
   -1.3942   -2.2820   -1.6217 H   0  0  0  0  0  0  0  0  0  0  0  0
    2.0956    0.1614    0.1428 H   0  0  0  0  0  0  0  0  0  0  0  0
    0.6916   -0.0833   -3.1404 H   0  0  0  0  0  0  0  0  0  0  0  0
    0.6156   -1.8213   -2.8452 H   0  0  0  0  0  0  0  0  0  0  0  0
    2.7497   -1.7339   -2.1738 H   0  0  0  0  0  0  0  0  0  0  0  0
   -0.0183   -0.1356    1.5937 H   0  0  0  0  0  0  0  0  0  0  0  0
    0.4750   -1.7298    2.1166 H   0  0  0  0  0  0  0  0  0  0  0  0
   -2.3247    0.7044    0.8878 H   0  0  0  0  0  0  0  0  0  0  0  0
   -0.5826    1.1921    0.0336 H   0  0  0  0  0  0  0  0  0  0  0  0
    0.8043    1.3735   -0.9986 H   0  0  0  0  0  0  0  0  0  0  0  0
   -0.7731    1.3918   -1.7102 H   0  0  0  0  0  0  0  0  0  0  0  0
   -3.0145   -1.4429   -2.8720 H   0  0  0  0  0  0  0  0  0  0  0  0
   -1.7505   -0.2968   -3.2368 H   0  0  0  0  0  0  0  0  0  0  0  0
    1.1595   -3.5158    0.5880 H   0  0  0  0  0  0  0  0  0  0  0  0
   -0.2987   -3.4272   -0.3094 H   0  0  0  0  0  0  0  0  0  0  0  0
    1.1925   -3.2957   -1.1875 H   0  0  0  0  0  0  0  0  0  0  0  0
   -3.9669   -2.6581    0.8241 H   0  0  0  0  0  0  0  0  0  0  0  0
   -4.1626   -2.2089   -0.8706 H   0  0  0  0  0  0  0  0  0  0  0  0
   -2.9367   -3.3910   -0.3846 H   0  0  0  0  0  0  0  0  0  0  0  0
   -3.7376    0.9786   -2.8915 H   0  0  0  0  0  0  0  0  0  0  0  0
   -3.8759   -0.7484    2.3542 H   0  0  0  0  0  0  0  0  0  0  0  0
    3.9511    0.0501   -2.0825 H   0  0  0  0  0  0  0  0  0  0  0  0
    3.9402   -1.9377    2.4743 H   0  0  0  0  0  0  0  0  0  0  0  0
    2.3466   -2.5693    2.2344 H   0  0  0  0  0  0  0  0  0  0  0  0
    2.6103   -0.7979    2.4053 H   0  0  0  0  0  0  0  0  0  0  0  0
    3.7405   -2.9178   -0.9255 H   0  0  0  0  0  0  0  0  0  0  0  0
   -4.5876    3.9800    0.4890 H   0  0  0  0  0  0  0  0  0  0  0  0
   -3.4407    2.8710    1.2323 H   0  0  0  0  0  0  0  0  0  0  0  0
   -3.0647    3.5913   -0.3380 H   0  0  0  0  0  0  0  0  0  0  0  0
   -5.7787    1.8123   -2.2760 H   0  0  0  0  0  0  0  0  0  0  0  0
   -5.9024    3.3736   -1.4914 H   0  0  0  0  0  0  0  0  0  0  0  0
   -4.4515    3.0032   -2.4055 H   0  0  0  0  0  0  0  0  0  0  0  0
    3.9512    0.9611    1.0555 H   0  0  0  0  0  0  0  0  0  0  0  0
   -7.0266    0.8305    2.3245 H   0  0  0  0  0  0  0  0  0  0  0  0
    6.7258    0.5559   -0.2013 H   0  0  0  0  0  0  0  0  0  0  0  0
    7.4277    2.8288   -1.1802 H   0  0  0  0  0  0  0  0  0  0  0  0
    5.7329    3.3492   -1.3170 H   0  0  0  0  0  0  0  0  0  0  0  0
    6.9171    4.3231   -0.4192 H   0  0  0  0  0  0  0  0  0  0  0  0
    4.2551    3.3814    0.8763 H   0  0  0  0  0  0  0  0  0  0  0  0
    4.9853    2.7964    2.3927 H   0  0  0  0  0  0  0  0  0  0  0  0
    5.5342    4.3025    1.6876 H   0  0  0  0  0  0  0  0  0  0  0  0
    7.7214    3.4120    1.6301 H   0  0  0  0  0  0  0  0  0  0  0  0
  1 14  1  0  0  0  0
  1 59  1  0  0  0  0
  2 21  1  0  0  0  0
  2 63  1  0  0  0  0
  3 16  2  0  0  0  0
  4 28  2  0  0  0  0
  5 30  1  0  0  0  0
  5 71  1  0  0  0  0
  6 29  2  0  0  0  0
  7 35  1  0  0  0  0
  7 79  1  0  0  0  0
  8  9  1  0  0  0  0
  8 10  1  0  0  0  0
  8 13  1  0  0  0  0
  8 18  1  0  0  0  0
  9 11  1  0  0  0  0
  9 15  1  0  0  0  0
  9 20  1  0  0  0  0
 10 12  1  0  0  0  0
 10 19  1  0  0  0  0
 10 38  1  0  0  0  0
 11 14  1  0  0  0  0
 11 21  1  0  0  0  0
 11 39  1  0  0  0  0
 12 16  1  0  0  0  0
 12 17  1  0  0  0  0
 12 22  1  0  0  0  0
 13 14  1  0  0  0  0
 13 40  1  0  0  0  0
 13 41  1  0  0  0  0
 14 42  1  0  0  0  0
 15 16  1  0  0  0  0
 15 43  1  0  0  0  0
 15 44  1  0  0  0  0
 17 23  1  0  0  0  0
 17 26  1  0  0  0  0
 17 45  1  0  0  0  0
 18 46  1  0  0  0  0
 18 47  1  0  0  0  0
 18 48  1  0  0  0  0
 19 24  1  0  0  0  0
 19 49  1  0  0  0  0
 19 50  1  0  0  0  0
 20 51  1  0  0  0  0
 20 52  1  0  0  0  0
 20 53  1  0  0  0  0
 21 27  1  0  0  0  0
 21 28  1  0  0  0  0
 22 54  1  0  0  0  0
 22 55  1  0  0  0  0
 22 56  1  0  0  0  0
 23 24  2  0  0  0  0
 23 25  1  0  0  0  0
 24 57  1  0  0  0  0
 25 29  1  0  0  0  0
 25 31  1  0  0  0  0
 25 32  1  0  0  0  0
 26 30  2  0  0  0  0
 26 58  1  0  0  0  0
 27 60  1  0  0  0  0
 27 61  1  0  0  0  0
 27 62  1  0  0  0  0
 28 33  1  0  0  0  0
 29 30  1  0  0  0  0
 31 64  1  0  0  0  0
 31 65  1  0  0  0  0
 31 66  1  0  0  0  0
 32 67  1  0  0  0  0
 32 68  1  0  0  0  0
 32 69  1  0  0  0  0
 33 34  2  0  0  0  0
 33 70  1  0  0  0  0
 34 35  1  0  0  0  0
 34 72  1  0  0  0  0
 35 36  1  0  0  0  0
 35 37  1  0  0  0  0
 36 73  1  0  0  0  0
 36 74  1  0  0  0  0
 36 75  1  0  0  0  0
 37 76  1  0  0  0  0
 37 77  1  0  0  0  0
 37 78  1  0  0  0  0
M  END
> <PUBCHEM_COMPOUND_CID>
5281321

> <PUBCHEM_CONFORMER_RMSD>
0.8

> <PUBCHEM_CONFORMER_DIVERSEORDER>
1
17
13
8
14
3
6
16
15
12
11
7
10
4
9
2
5

> <PUBCHEM_MMFF94_PARTIAL_CHARGES>
32
1 -0.68
12 0.06
14 0.28
15 0.06
16 0.45
17 0.28
19 0.14
2 -0.68
21 0.34
23 -0.28
24 -0.29
25 0.2
26 -0.29
28 0.49
29 0.49
3 -0.57
30 0.09
33 -0.14
34 -0.29
35 0.42
4 -0.57
5 -0.53
57 0.15
58 0.15
59 0.4
6 -0.57
63 0.4
7 -0.68
70 0.15
71 0.45
72 0.15
79 0.4

> <PUBCHEM_EFFECTIVE_ROTOR_COUNT>
5.2

> <PUBCHEM_PHARMACOPHORE_FEATURES>
16
1 1 acceptor
1 1 donor
1 2 acceptor
1 2 donor
1 3 acceptor
1 4 acceptor
1 5 donor
1 6 acceptor
1 7 acceptor
1 7 donor
3 25 31 32 hydrophobe
3 35 36 37 hydrophobe
5 8 9 11 13 14 rings
6 10 12 17 19 23 24 rings
6 17 23 25 26 29 30 rings
6 8 9 10 12 15 16 rings

> <PUBCHEM_HEAVY_ATOM_COUNT>
37

> <PUBCHEM_ATOM_DEF_STEREO_COUNT>
8

> <PUBCHEM_ATOM_UDEF_STEREO_COUNT>
0

> <PUBCHEM_BOND_DEF_STEREO_COUNT>
1

> <PUBCHEM_BOND_UDEF_STEREO_COUNT>
0

> <PUBCHEM_ISOTOPIC_ATOM_COUNT>
0

> <PUBCHEM_COMPONENT_COUNT>
1

> <PUBCHEM_CACTVS_TAUTO_COUNT>
10

> <PUBCHEM_CONFORMER_ID>
0050962900000001

> <PUBCHEM_MMFF94_ENERGY>
151.8364

> <PUBCHEM_FEATURE_SELFOVERLAP>
81.325

> <PUBCHEM_SHAPE_FINGERPRINT>
10 15 18186523210814840512
10554248 39 16988852635904824326
11007060 377 18261103080954371983
11112241 14 18334284366600299487
11135609 201 18271524294447487043
11393246 34 9223242853134759424
11456790 92 18261101921872326314
11578080 2 18411703218153739730
12422481 6 16515966939394057367
13140716 1 17023755490114927247
13690498 29 15911339108563225868
13782708 43 11097856302116960952
13911987 19 16917353653370617723
14395042 24 17169568496412637075
14739800 52 18409724037199565936
14840074 17 17775286049754294161
14951699 99 18335709355561880820
15064981 194 16271921637112854561
15082195 135 17417230109432431476
15475509 35 12612757934457951996
15510800 12 11170182130412662368
15840311 113 18412546470457560213
17980427 23 18040714826709447294
18393751 57 18260832622279268483
19315092 285 12829201179468376412
20511986 3 18040427764112042139
20691028 202 18343581849984203512
21033648 144 18342453755375082365
21033648 29 17822287955516883941
21033650 10 14117531930181216763
21344244 181 11527939071557432477
22122407 14 18343865515800098816
22393880 68 12607108579215777399
22889206 1 17968646130291744834
23559900 14 17970360225922931390
23569914 152 10518052918759717553
23569914 2 17756661413475245300
27425 322 18273494563529651750
2838139 119 18201152152998457020
3552219 110 16984068888399015331
3882209 13 17102012426763041267
392239 28 17968084378961271612
397830 11 18261399965756834571
4258327 124 17988920089995589101
474113 269 13623803969191065257
5104073 3 17894620457922263962
57724786 102 17917157091394627486
6034566 193 18131348639380749767
6608658 132 16271939193984275664
6697151 62 17541358164633365175
7970288 3 8790009983113636881

> <PUBCHEM_SHAPE_MULTIPOLES>
720.36
16.59
3.67
2.19
11.56
1.76
-0.28
17.29
5.6
2.99
0.62
-1.43
-0.23
1.39

> <PUBCHEM_SHAPE_SELFOVERLAP>
1542.313

> <PUBCHEM_SHAPE_VOLUME>
395.6

> <PUBCHEM_COORDINATE_TYPE>
2
5
10

$$$$
