167452
  -OEChem-10241302473D

 62 65  0     1  0  0  0  0  0999 V2000
    0.7572    0.4173    1.8006 O   0  0  0  0  0  0  0  0  0  0  0  0
   -0.7569    0.4147   -1.8006 O   0  0  0  0  0  0  0  0  0  0  0  0
    4.8424   -2.3678    1.3146 O   0  0  0  0  0  0  0  0  0  0  0  0
   -5.9816    1.5832    1.1404 O   0  0  0  0  0  0  0  0  0  0  0  0
    5.9812    1.5819   -1.1430 O   0  0  0  0  0  0  0  0  0  0  0  0
   -4.8426   -2.3692   -1.3126 O   0  0  0  0  0  0  0  0  0  0  0  0
    6.6662   -0.9280   -0.1922 O   0  0  0  0  0  0  0  0  0  0  0  0
   -6.6668   -0.9271    0.1925 O   0  0  0  0  0  0  0  0  0  0  0  0
    0.6980    1.5408   -0.2828 C   0  0  1  0  0  0  0  0  0  0  0  0
   -0.6980    1.5405    0.2811 C   0  0  1  0  0  0  0  0  0  0  0  0
    1.5579    1.2501    0.9402 C   0  0  2  0  0  0  0  0  0  0  0  0
   -1.5577    1.2486   -0.9416 C   0  0  2  0  0  0  0  0  0  0  0  0
   -0.6044    0.4491    1.3438 C   0  0  0  0  0  0  0  0  0  0  0  0
    0.6051    0.4487   -1.3449 C   0  0  0  0  0  0  0  0  0  0  0  0
    2.9187    0.6701    0.6388 C   0  0  0  0  0  0  0  0  0  0  0  0
   -2.9186    0.6689   -0.6392 C   0  0  0  0  0  0  0  0  0  0  0  0
    3.8392    1.3967   -0.1210 C   0  0  0  0  0  0  0  0  0  0  0  0
   -3.2641   -0.5979   -1.1169 C   0  0  0  0  0  0  0  0  0  0  0  0
    3.2643   -0.5958    1.1186 C   0  0  0  0  0  0  0  0  0  0  0  0
   -3.8386    1.3962    0.1203 C   0  0  0  0  0  0  0  0  0  0  0  0
    4.5221   -1.1314    0.8407 C   0  0  0  0  0  0  0  0  0  0  0  0
   -5.0957    0.8602    0.4001 C   0  0  0  0  0  0  0  0  0  0  0  0
    5.0967    0.8609   -0.3989 C   0  0  0  0  0  0  0  0  0  0  0  0
   -4.5213   -1.1337   -0.8371 C   0  0  0  0  0  0  0  0  0  0  0  0
    5.4382   -0.4031    0.0819 C   0  0  0  0  0  0  0  0  0  0  0  0
   -5.4370   -0.4047   -0.0786 C   0  0  0  0  0  0  0  0  0  0  0  0
    4.5343   -3.4819    0.4792 C   0  0  0  0  0  0  0  0  0  0  0  0
   -5.9448    1.4017    2.5545 C   0  0  0  0  0  0  0  0  0  0  0  0
    5.9407    1.3972   -2.5568 C   0  0  0  0  0  0  0  0  0  0  0  0
   -4.5368   -3.4846   -0.4779 C   0  0  0  0  0  0  0  0  0  0  0  0
    7.7103   -0.6520    0.7385 C   0  0  0  0  0  0  0  0  0  0  0  0
   -7.7078   -0.6495   -0.7413 C   0  0  0  0  0  0  0  0  0  0  0  0
    0.9534    2.4954   -0.7573 H   0  0  0  0  0  0  0  0  0  0  0  0
   -0.9539    2.4952    0.7551 H   0  0  0  0  0  0  0  0  0  0  0  0
    1.7122    2.1805    1.5032 H   0  0  0  0  0  0  0  0  0  0  0  0
   -1.7120    2.1783   -1.5057 H   0  0  0  0  0  0  0  0  0  0  0  0
   -0.8454   -0.5479    0.9603 H   0  0  0  0  0  0  0  0  0  0  0  0
   -1.2619    0.6513    2.1950 H   0  0  0  0  0  0  0  0  0  0  0  0
    0.8477   -0.5478   -0.9610 H   0  0  0  0  0  0  0  0  0  0  0  0
    1.2615    0.6515   -2.1966 H   0  0  0  0  0  0  0  0  0  0  0  0
    3.5804    2.3842   -0.4955 H   0  0  0  0  0  0  0  0  0  0  0  0
   -2.5682   -1.1866   -1.7085 H   0  0  0  0  0  0  0  0  0  0  0  0
    2.5679   -1.1842    1.7100 H   0  0  0  0  0  0  0  0  0  0  0  0
   -3.5801    2.3846    0.4927 H   0  0  0  0  0  0  0  0  0  0  0  0
    3.4558   -3.5411    0.3016 H   0  0  0  0  0  0  0  0  0  0  0  0
    5.0686   -3.4091   -0.4733 H   0  0  0  0  0  0  0  0  0  0  0  0
    4.8551   -4.3932    0.9913 H   0  0  0  0  0  0  0  0  0  0  0  0
   -4.9682    1.6943    2.9532 H   0  0  0  0  0  0  0  0  0  0  0  0
   -6.7111    2.0406    3.0020 H   0  0  0  0  0  0  0  0  0  0  0  0
   -6.1608    0.3608    2.8153 H   0  0  0  0  0  0  0  0  0  0  0  0
    6.7068    2.0339   -3.0075 H   0  0  0  0  0  0  0  0  0  0  0  0
    6.1546    0.3554   -2.8156 H   0  0  0  0  0  0  0  0  0  0  0  0
    4.9635    1.6902   -2.9537 H   0  0  0  0  0  0  0  0  0  0  0  0
   -5.0728   -3.4123    0.4736 H   0  0  0  0  0  0  0  0  0  0  0  0
   -3.4586   -3.5447   -0.2985 H   0  0  0  0  0  0  0  0  0  0  0  0
   -4.8574   -4.3950   -0.9916 H   0  0  0  0  0  0  0  0  0  0  0  0
    7.8903    0.4254    0.8074 H   0  0  0  0  0  0  0  0  0  0  0  0
    7.4633   -1.0552    1.7256 H   0  0  0  0  0  0  0  0  0  0  0  0
    8.6235   -1.1364    0.3821 H   0  0  0  0  0  0  0  0  0  0  0  0
   -8.6229   -1.1318   -0.3871 H   0  0  0  0  0  0  0  0  0  0  0  0
   -7.8856    0.4283   -0.8113 H   0  0  0  0  0  0  0  0  0  0  0  0
   -7.4589   -1.0537   -1.7276 H   0  0  0  0  0  0  0  0  0  0  0  0
  1 11  1  0  0  0  0
  1 13  1  0  0  0  0
  2 12  1  0  0  0  0
  2 14  1  0  0  0  0
  3 21  1  0  0  0  0
  3 27  1  0  0  0  0
  4 22  1  0  0  0  0
  4 28  1  0  0  0  0
  5 23  1  0  0  0  0
  5 29  1  0  0  0  0
  6 24  1  0  0  0  0
  6 30  1  0  0  0  0
  7 25  1  0  0  0  0
  7 31  1  0  0  0  0
  8 26  1  0  0  0  0
  8 32  1  0  0  0  0
  9 10  1  0  0  0  0
  9 11  1  0  0  0  0
  9 14  1  0  0  0  0
  9 33  1  0  0  0  0
 10 12  1  0  0  0  0
 10 13  1  0  0  0  0
 10 34  1  0  0  0  0
 11 15  1  0  0  0  0
 11 35  1  0  0  0  0
 12 16  1  0  0  0  0
 12 36  1  0  0  0  0
 13 37  1  0  0  0  0
 13 38  1  0  0  0  0
 14 39  1  0  0  0  0
 14 40  1  0  0  0  0
 15 17  2  0  0  0  0
 15 19  1  0  0  0  0
 16 18  2  0  0  0  0
 16 20  1  0  0  0  0
 17 23  1  0  0  0  0
 17 41  1  0  0  0  0
 18 24  1  0  0  0  0
 18 42  1  0  0  0  0
 19 21  2  0  0  0  0
 19 43  1  0  0  0  0
 20 22  2  0  0  0  0
 20 44  1  0  0  0  0
 21 25  1  0  0  0  0
 22 26  1  0  0  0  0
 23 25  2  0  0  0  0
 24 26  2  0  0  0  0
 27 45  1  0  0  0  0
 27 46  1  0  0  0  0
 27 47  1  0  0  0  0
 28 48  1  0  0  0  0
 28 49  1  0  0  0  0
 28 50  1  0  0  0  0
 29 51  1  0  0  0  0
 29 52  1  0  0  0  0
 29 53  1  0  0  0  0
 30 54  1  0  0  0  0
 30 55  1  0  0  0  0
 30 56  1  0  0  0  0
 31 57  1  0  0  0  0
 31 58  1  0  0  0  0
 31 59  1  0  0  0  0
 32 60  1  0  0  0  0
 32 61  1  0  0  0  0
 32 62  1  0  0  0  0
M  END
> <PUBCHEM_COMPOUND_CID>
167452

> <PUBCHEM_CONFORMER_RMSD>
1

> <PUBCHEM_CONFORMER_DIVERSEORDER>
1
7
11
6
2
9
5
4
10
12
8
3

> <PUBCHEM_MMFF94_PARTIAL_CHARGES>
34
1 -0.56
11 0.42
12 0.42
13 0.28
14 0.28
15 -0.14
16 -0.14
17 -0.15
18 -0.15
19 -0.15
2 -0.56
20 -0.15
21 0.08
22 0.08
23 0.08
24 0.08
25 0.08
26 0.08
27 0.28
28 0.28
29 0.28
3 -0.36
30 0.28
31 0.28
32 0.28
4 -0.36
41 0.15
42 0.15
43 0.15
44 0.15
5 -0.36
6 -0.36
7 -0.36
8 -0.36

> <PUBCHEM_EFFECTIVE_ROTOR_COUNT>
9.2

> <PUBCHEM_PHARMACOPHORE_FEATURES>
12
1 1 acceptor
1 2 acceptor
1 3 acceptor
1 4 acceptor
1 5 acceptor
1 6 acceptor
1 7 acceptor
1 8 acceptor
5 1 9 10 11 13 rings
5 2 9 10 12 14 rings
6 15 17 19 21 23 25 rings
6 16 18 20 22 24 26 rings

> <PUBCHEM_HEAVY_ATOM_COUNT>
32

> <PUBCHEM_ATOM_DEF_STEREO_COUNT>
4

> <PUBCHEM_ATOM_UDEF_STEREO_COUNT>
0

> <PUBCHEM_BOND_DEF_STEREO_COUNT>
0

> <PUBCHEM_BOND_UDEF_STEREO_COUNT>
0

> <PUBCHEM_ISOTOPIC_ATOM_COUNT>
0

> <PUBCHEM_COMPONENT_COUNT>
1

> <PUBCHEM_CACTVS_TAUTO_COUNT>
1

> <PUBCHEM_CONFORMER_ID>
00028E1C00000001

> <PUBCHEM_MMFF94_ENERGY>
162.6521

> <PUBCHEM_FEATURE_SELFOVERLAP>
61.363

> <PUBCHEM_SHAPE_FINGERPRINT>
10 15 16559023926238116961
10299344 5 18410576188469738945
10319926 262 17489869354175383357
10595046 47 18334576820030825012
10677351 27 18336277789751020399
11524674 6 16988840601475150015
11646440 116 14476963415298949859
11796584 16 17917712405027831582
12107183 9 18272092643855814481
12236239 1 18410858758668982468
12730499 353 17313391115320722248
13533116 47 18333735689456406808
1361 2 17967534593013872030
13690498 29 17895180092039568061
13782708 43 17059765754465995023
14251764 18 18273495684689766285
14347424 109 11527958837887926340
14840074 17 17967531281420214975
14856354 85 18343868835783223989
15082195 135 17533502489729560316
15183329 4 18409163316212897323
15250474 111 18411407432214402526
15348495 7 15769200760657960003
15352257 5 18410853261110687687
15461852 350 12973895797139319176
15799311 1 18410864260516580046
21033648 29 15482667957814414289
21315763 191 18413669119021151972
220451 1 18411143536475238436
22950370 63 18410851062082001473
23516275 137 18196113078297916034
23522609 53 18266485185355746724
23559900 14 18198612436506287777
23569914 152 16379397605246983935
23569943 247 18042959874518480771
24771750 20 15651031942796401748
2838139 119 9367341556920541187
335507 130 18186242822923765548
3383291 50 16702015397052324679
34797466 226 16732701661917095028
4073 2 18265893742714845440
4325135 7 18186516601281976622
46194498 28 17530966844354178102
5104073 3 17917703634567808001
5265222 85 17559116695156145276
54039377 194 18338231545601114558
6009941 240 17632859694332004713
7226269 152 14908176447820826801

> <PUBCHEM_SHAPE_MULTIPOLES>
611.59
20.98
2.62
1.75
0
2.77
0
5.77
0
-0.01
0
0
-0.55
-3.79

> <PUBCHEM_SHAPE_SELFOVERLAP>
1314.025

> <PUBCHEM_SHAPE_VOLUME>
343.2

> <PUBCHEM_COORDINATE_TYPE>
2
5
10

$$$$
