15090148
  -OEChem-10241303043D

 56 56  0     1  0  0  0  0  0999 V2000
    3.6141   -1.3579    2.2662 O   0  0  0  0  0  0  0  0  0  0  0  0
   -2.9196    2.3018    2.2583 O   0  0  0  0  0  0  0  0  0  0  0  0
    3.8104    0.7954   -2.1463 O   0  0  0  0  0  0  0  0  0  0  0  0
   -4.5957   -2.0035    0.4232 O   0  0  0  0  0  0  0  0  0  0  0  0
    3.0760    1.8209    1.1606 O   0  0  0  0  0  0  0  0  0  0  0  0
   -2.2155   -0.6261   -1.8071 O   0  0  0  0  0  0  0  0  0  0  0  0
   -0.4273   -1.9576    1.0271 O   0  0  0  0  0  0  0  0  0  0  0  0
   -0.1279    1.3357   -0.7864 O   0  0  0  0  0  0  0  0  0  0  0  0
    3.9102    0.8806   -0.7522 N   0  0  0  0  0  0  0  0  0  0  0  0
   -3.9326   -1.0460   -0.3537 N   0  0  0  0  0  0  0  0  0  0  0  0
    1.3029   -3.1175    0.0045 N   0  0  0  0  0  0  0  0  0  0  0  0
   -1.2752    3.1673    0.0617 N   0  0  0  0  0  0  0  0  0  0  0  0
    2.9662   -1.5818    1.0141 C   0  0  1  0  0  0  0  0  0  0  0  0
   -2.9860    1.6270    0.9985 C   0  0  1  0  0  0  0  0  0  0  0  0
    4.0207   -1.5206   -0.1005 C   0  0  0  0  0  0  0  0  0  0  0  0
   -4.4137    1.0799    0.8351 C   0  0  0  0  0  0  0  0  0  0  0  0
    4.7442   -0.1704   -0.1866 C   0  0  0  0  0  0  0  0  0  0  0  0
   -4.6444    0.2226   -0.4108 C   0  0  0  0  0  0  0  0  0  0  0  0
    2.2711   -2.9433    1.0701 C   0  0  0  0  0  0  0  0  0  0  0  0
   -2.6214    2.6385   -0.0900 C   0  0  0  0  0  0  0  0  0  0  0  0
    2.3132    2.7331   -0.9328 C   0  0  0  0  0  0  0  0  0  0  0  0
   -2.3255   -2.8312   -0.8511 C   0  0  0  0  0  0  0  0  0  0  0  0
    1.1110    3.3360   -0.2077 C   0  0  0  0  0  0  0  0  0  0  0  0
   -0.8310   -3.0057   -1.1166 C   0  0  0  0  0  0  0  0  0  0  0  0
    3.1147    1.7643   -0.0701 C   0  0  0  0  0  0  0  0  0  0  0  0
   -2.8049   -1.3968   -1.0475 C   0  0  0  0  0  0  0  0  0  0  0  0
    0.0070   -2.6297    0.0945 C   0  0  0  0  0  0  0  0  0  0  0  0
   -0.1413    2.4850   -0.3544 C   0  0  0  0  0  0  0  0  0  0  0  0
    2.2230   -0.7892    0.8837 H   0  0  0  0  0  0  0  0  0  0  0  0
   -2.2571    0.8099    1.0276 H   0  0  0  0  0  0  0  0  0  0  0  0
    3.5607   -1.7579   -1.0669 H   0  0  0  0  0  0  0  0  0  0  0  0
    4.7838   -2.2852    0.0947 H   0  0  0  0  0  0  0  0  0  0  0  0
   -5.1154    1.9243    0.8193 H   0  0  0  0  0  0  0  0  0  0  0  0
   -4.6779    0.5013    1.7301 H   0  0  0  0  0  0  0  0  0  0  0  0
    5.0808    0.1478    0.8056 H   0  0  0  0  0  0  0  0  0  0  0  0
    5.6304   -0.2668   -0.8243 H   0  0  0  0  0  0  0  0  0  0  0  0
   -5.7133    0.0004   -0.5099 H   0  0  0  0  0  0  0  0  0  0  0  0
   -4.3417    0.7603   -1.3137 H   0  0  0  0  0  0  0  0  0  0  0  0
    2.9965   -3.7618    1.0031 H   0  0  0  0  0  0  0  0  0  0  0  0
    1.7525   -3.0581    2.0297 H   0  0  0  0  0  0  0  0  0  0  0  0
   -2.6848    2.1909   -1.0859 H   0  0  0  0  0  0  0  0  0  0  0  0
   -3.2934    3.5029   -0.0521 H   0  0  0  0  0  0  0  0  0  0  0  0
    3.0069    3.5397   -1.2014 H   0  0  0  0  0  0  0  0  0  0  0  0
    1.9898    2.2578   -1.8640 H   0  0  0  0  0  0  0  0  0  0  0  0
   -2.5655   -3.1908    0.1547 H   0  0  0  0  0  0  0  0  0  0  0  0
   -2.8907   -3.4428   -1.5649 H   0  0  0  0  0  0  0  0  0  0  0  0
    1.5897   -3.6330   -0.8225 H   0  0  0  0  0  0  0  0  0  0  0  0
   -1.1775    4.1017    0.4484 H   0  0  0  0  0  0  0  0  0  0  0  0
    0.8941    4.3132   -0.6579 H   0  0  0  0  0  0  0  0  0  0  0  0
   -0.4875   -2.4179   -1.9743 H   0  0  0  0  0  0  0  0  0  0  0  0
    1.3007    3.5003    0.8581 H   0  0  0  0  0  0  0  0  0  0  0  0
   -0.6406   -4.0627   -1.3404 H   0  0  0  0  0  0  0  0  0  0  0  0
    4.2625   -2.0706    2.3991 H   0  0  0  0  0  0  0  0  0  0  0  0
   -3.1047    1.6459    2.9520 H   0  0  0  0  0  0  0  0  0  0  0  0
    4.5632    1.3510   -2.4111 H   0  0  0  0  0  0  0  0  0  0  0  0
   -5.2540   -2.3283   -0.2147 H   0  0  0  0  0  0  0  0  0  0  0  0
  1 13  1  0  0  0  0
  1 53  1  0  0  0  0
  2 14  1  0  0  0  0
  2 54  1  0  0  0  0
  3  9  1  0  0  0  0
  3 55  1  0  0  0  0
  4 10  1  0  0  0  0
  4 56  1  0  0  0  0
  5 25  2  0  0  0  0
  6 26  2  0  0  0  0
  7 27  2  0  0  0  0
  8 28  2  0  0  0  0
  9 17  1  0  0  0  0
  9 25  1  0  0  0  0
 10 18  1  0  0  0  0
 10 26  1  0  0  0  0
 11 19  1  0  0  0  0
 11 27  1  0  0  0  0
 11 47  1  0  0  0  0
 12 20  1  0  0  0  0
 12 28  1  0  0  0  0
 12 48  1  0  0  0  0
 13 15  1  0  0  0  0
 13 19  1  0  0  0  0
 13 29  1  0  0  0  0
 14 16  1  0  0  0  0
 14 20  1  0  0  0  0
 14 30  1  0  0  0  0
 15 17  1  0  0  0  0
 15 31  1  0  0  0  0
 15 32  1  0  0  0  0
 16 18  1  0  0  0  0
 16 33  1  0  0  0  0
 16 34  1  0  0  0  0
 17 35  1  0  0  0  0
 17 36  1  0  0  0  0
 18 37  1  0  0  0  0
 18 38  1  0  0  0  0
 19 39  1  0  0  0  0
 19 40  1  0  0  0  0
 20 41  1  0  0  0  0
 20 42  1  0  0  0  0
 21 23  1  0  0  0  0
 21 25  1  0  0  0  0
 21 43  1  0  0  0  0
 21 44  1  0  0  0  0
 22 24  1  0  0  0  0
 22 26  1  0  0  0  0
 22 45  1  0  0  0  0
 22 46  1  0  0  0  0
 23 28  1  0  0  0  0
 23 49  1  0  0  0  0
 23 51  1  0  0  0  0
 24 27  1  0  0  0  0
 24 50  1  0  0  0  0
 24 52  1  0  0  0  0
M  END
> <PUBCHEM_COMPOUND_CID>
15090148

> <PUBCHEM_CONFORMER_RMSD>
0.8

> <PUBCHEM_CONFORMER_DIVERSEORDER>
4
26
53
71
54
15
10
11
13
29
19
46
16
42
70
68
28
25
67
21
6
9
41
39
52
65
50
56
48
64
1
66
47
24
31
63
58
12
3
8
59
57
23
45
36
32
37
44
18
51
33
22
62
49
60
55
69
72
17
7
5
61
35
40
14
38
2
73
30
27
43
20
34

> <PUBCHEM_MMFF94_PARTIAL_CHARGES>
32
1 -0.68
10 -0.32
11 -0.73
12 -0.73
13 0.28
14 0.28
17 0.3
18 0.3
19 0.3
2 -0.68
20 0.3
21 0.06
22 0.06
23 0.06
24 0.06
25 0.57
26 0.57
27 0.57
28 0.57
3 -0.44
4 -0.44
47 0.37
48 0.37
5 -0.57
53 0.4
54 0.4
55 0.4
56 0.4
6 -0.57
7 -0.57
8 -0.57
9 -0.32

> <PUBCHEM_EFFECTIVE_ROTOR_COUNT>
3.2

> <PUBCHEM_PHARMACOPHORE_FEATURES>
10
1 1 acceptor
1 1 donor
1 11 donor
1 12 donor
1 2 acceptor
1 2 donor
1 5 acceptor
1 6 acceptor
1 7 acceptor
1 8 acceptor

> <PUBCHEM_HEAVY_ATOM_COUNT>
28

> <PUBCHEM_ATOM_DEF_STEREO_COUNT>
2

> <PUBCHEM_ATOM_UDEF_STEREO_COUNT>
0

> <PUBCHEM_BOND_DEF_STEREO_COUNT>
0

> <PUBCHEM_BOND_UDEF_STEREO_COUNT>
0

> <PUBCHEM_ISOTOPIC_ATOM_COUNT>
0

> <PUBCHEM_COMPONENT_COUNT>
1

> <PUBCHEM_CACTVS_TAUTO_COUNT>
3

> <PUBCHEM_CONFORMER_ID>
00E641E400000004

> <PUBCHEM_MMFF94_ENERGY>
38.9891

> <PUBCHEM_FEATURE_SELFOVERLAP>
50.755

> <PUBCHEM_SHAPE_FINGERPRINT>
10670039 82 18341897355463403214
10708813 3 18412548699545391577
11513181 2 17988642926538569615
12156800 1 13319559979127390830
12553582 1 18337099069491985388
12788726 201 18129395945384823533
12978246 48 18339073779232015443
13122387 1 17978508629054079492
14117953 113 17690273812011880445
14840074 17 18336278842481724857
15001296 14 18335982055624753177
15297060 5 17703517579670972827
17977149 70 17766855935427709590
19591789 44 18411140190827388964
19930381 70 16465576737999883751
21673915 165 18411981360367703560
21796203 349 18046660869971565720
21857420 4 15617161551253127366
3014063 31 18409726292067737718
338550 245 18334579031611779236
437795 70 18055942942917352846
445580 8 18339080367579998059
463206 1 18408611344101094984
57091435 65 18120947109237390278
5895379 119 18273495685006329442
6287921 2 17697325010208849747
7064713 232 18057317293127044385
9543594 6 18412821404399382912

> <PUBCHEM_SHAPE_MULTIPOLES>
509.35
9.34
5
1.54
0.48
0.08
-0.28
-0.18
-0.76
0.07
0.02
-0.35
-0.04
-2.36

> <PUBCHEM_SHAPE_SELFOVERLAP>
1005.633

> <PUBCHEM_SHAPE_VOLUME>
299.6

> <PUBCHEM_COORDINATE_TYPE>
2
5
10

$$$$
