162871
  -OEChem-10241303043D

 27 29  0     0  0  0  0  0  0999 V2000
   -2.5474    1.9985    0.1496 O   0  0  0  0  0  0  0  0  0  0  0  0
   -2.9056   -0.3007   -0.0288 N   0  0  0  0  0  0  0  0  0  0  0  0
    0.3393    1.4869   -0.0526 N   0  0  0  0  0  0  0  0  0  0  0  0
   -0.1186   -0.6790    0.1041 C   0  0  0  0  0  0  0  0  0  0  0  0
   -0.9696   -1.8878    0.2355 C   0  0  0  0  0  0  0  0  0  0  0  0
   -0.6816    0.5787    0.0282 C   0  0  0  0  0  0  0  0  0  0  0  0
   -2.3429   -1.6167   -0.3928 C   0  0  0  0  0  0  0  0  0  0  0  0
    1.2941   -0.5339    0.0560 C   0  0  0  0  0  0  0  0  0  0  0  0
    1.5543    0.8361   -0.0454 C   0  0  0  0  0  0  0  0  0  0  0  0
   -2.1014    0.8570    0.0522 C   0  0  0  0  0  0  0  0  0  0  0  0
    2.3820   -1.4291    0.0928 C   0  0  0  0  0  0  0  0  0  0  0  0
   -4.3555   -0.1849   -0.0245 C   0  0  0  0  0  0  0  0  0  0  0  0
    2.8528    1.3536   -0.1162 C   0  0  0  0  0  0  0  0  0  0  0  0
    3.6854   -0.9245    0.0227 C   0  0  0  0  0  0  0  0  0  0  0  0
    3.9149    0.4458   -0.0809 C   0  0  0  0  0  0  0  0  0  0  0  0
   -0.5063   -2.7578   -0.2413 H   0  0  0  0  0  0  0  0  0  0  0  0
   -1.0920   -2.1162    1.3013 H   0  0  0  0  0  0  0  0  0  0  0  0
   -2.2671   -1.6298   -1.4871 H   0  0  0  0  0  0  0  0  0  0  0  0
   -3.0437   -2.4029   -0.0906 H   0  0  0  0  0  0  0  0  0  0  0  0
    0.2222    2.4890   -0.1146 H   0  0  0  0  0  0  0  0  0  0  0  0
    2.2190   -2.5000    0.1736 H   0  0  0  0  0  0  0  0  0  0  0  0
   -4.7693   -0.9260    0.6650 H   0  0  0  0  0  0  0  0  0  0  0  0
   -4.7240   -0.3750   -1.0367 H   0  0  0  0  0  0  0  0  0  0  0  0
   -4.6746    0.8121    0.2898 H   0  0  0  0  0  0  0  0  0  0  0  0
    3.0331    2.4205   -0.1944 H   0  0  0  0  0  0  0  0  0  0  0  0
    4.5275   -1.6109    0.0497 H   0  0  0  0  0  0  0  0  0  0  0  0
    4.9355    0.8161   -0.1338 H   0  0  0  0  0  0  0  0  0  0  0  0
  1 10  2  0  0  0  0
  2  7  1  0  0  0  0
  2 10  1  0  0  0  0
  2 12  1  0  0  0  0
  3  6  1  0  0  0  0
  3  9  1  0  0  0  0
  3 20  1  0  0  0  0
  4  5  1  0  0  0  0
  4  6  2  0  0  0  0
  4  8  1  0  0  0  0
  5  7  1  0  0  0  0
  5 16  1  0  0  0  0
  5 17  1  0  0  0  0
  6 10  1  0  0  0  0
  7 18  1  0  0  0  0
  7 19  1  0  0  0  0
  8  9  1  0  0  0  0
  8 11  2  0  0  0  0
  9 13  2  0  0  0  0
 11 14  1  0  0  0  0
 11 21  1  0  0  0  0
 12 22  1  0  0  0  0
 12 23  1  0  0  0  0
 12 24  1  0  0  0  0
 13 15  1  0  0  0  0
 13 25  1  0  0  0  0
 14 15  2  0  0  0  0
 14 26  1  0  0  0  0
 15 27  1  0  0  0  0
M  END
> <PUBCHEM_COMPOUND_CID>
162871

> <PUBCHEM_CONFORMER_RMSD>
0.4

> <PUBCHEM_CONFORMER_DIVERSEORDER>
1

> <PUBCHEM_MMFF94_PARTIAL_CHARGES>
19
1 -0.57
10 0.71
11 -0.15
12 0.3
13 -0.15
14 -0.15
15 -0.15
2 -0.66
20 0.27
21 0.15
25 0.15
26 0.15
27 0.15
3 0.03
4 -0.18
5 0.18
6 -0.24
7 0.3
9 -0.15

> <PUBCHEM_EFFECTIVE_ROTOR_COUNT>
0.6

> <PUBCHEM_PHARMACOPHORE_FEATURES>
6
1 1 acceptor
1 3 cation
1 3 donor
5 3 4 6 8 9 rings
6 2 4 5 6 7 10 rings
6 8 9 11 13 14 15 rings

> <PUBCHEM_HEAVY_ATOM_COUNT>
15

> <PUBCHEM_ATOM_DEF_STEREO_COUNT>
0

> <PUBCHEM_ATOM_UDEF_STEREO_COUNT>
0

> <PUBCHEM_BOND_DEF_STEREO_COUNT>
0

> <PUBCHEM_BOND_UDEF_STEREO_COUNT>
0

> <PUBCHEM_ISOTOPIC_ATOM_COUNT>
0

> <PUBCHEM_COMPONENT_COUNT>
1

> <PUBCHEM_CACTVS_TAUTO_COUNT>
2

> <PUBCHEM_CONFORMER_ID>
00027C3700000001

> <PUBCHEM_MMFF94_ENERGY>
27.9202

> <PUBCHEM_FEATURE_SELFOVERLAP>
30.629

> <PUBCHEM_SHAPE_FINGERPRINT>
10411042 1 15888840395652606787
10608611 8 18411978078986315728
10967382 1 18410575101890466354
11132069 177 18411974784645789712
11471102 20 18409443704462486214
12032990 46 18409736153054296746
12251169 10 18410571786460563474
12491281 212 18338245885646960088
12932764 1 17489579099805517188
13221675 6 18410012156258581019
13380535 76 18410575097748882618
13581323 91 18410575088963327511
14144814 61 18410012121977743170
14325111 11 18410575058993729296
15196674 1 18410575063198804935
15442244 35 18338233735427183050
15536298 74 18342175570654348714
16945 1 18337674251153485016
18186145 218 18338237042330422484
18522853 276 18412542115281386048
200 152 18131345328292981239
20510252 161 18272934882109321081
20645477 70 18411134714660099887
21267235 1 18410302397511644498
21501502 16 18410011048462752854
21501925 9 18409720755955119970
2334 1 18410011022365894968
23402539 116 18271798030373080925
23402655 69 18412258424370628165
23463225 33 18408885118454306870
23559900 14 18342734169948668456
2748010 2 18337954484863535252
3312278 4 18337393867082916210
335352 9 18050285869180947606
474 4 17314518217491568060
5104073 3 18410575097553302027
528886 8 18410288138214700346
53812653 166 18271521009156351240
57096353 35 18265897032812768598
69090 78 18343298180363307975
7364860 26 18270118045309972080
8809292 202 18261677076857271042
9709674 26 18412831299914784366

> <PUBCHEM_SHAPE_MULTIPOLES>
292.86
6.79
1.88
0.62
0.52
0.02
-0.01
-0.03
-0.21
0.29
0.02
0
0.04
-0.2

> <PUBCHEM_SHAPE_SELFOVERLAP>
649.749

> <PUBCHEM_SHAPE_VOLUME>
157.2

> <PUBCHEM_COORDINATE_TYPE>
2
5
10

$$$$
