73530
  -OEChem-10241302573D

 31 33  0     1  0  0  0  0  0999 V2000
   -3.5831    2.1292   -0.6999 O   0  0  0  0  0  0  0  0  0  0  0  0
   -4.3463    0.6412    0.8491 O   0  0  0  0  0  0  0  0  0  0  0  0
   -2.3191   -1.0170    0.4914 N   0  0  0  0  0  0  0  0  0  0  0  0
    1.3612   -1.6675    0.2069 N   0  0  0  0  0  0  0  0  0  0  0  0
   -1.1726   -1.9227    0.2210 C   0  0  2  0  0  0  0  0  0  0  0  0
    0.2006    0.2252    0.0437 C   0  0  0  0  0  0  0  0  0  0  0  0
    0.1008   -1.1445    0.1608 C   0  0  0  0  0  0  0  0  0  0  0  0
   -1.0153    1.0841   -0.0032 C   0  0  0  0  0  0  0  0  0  0  0  0
   -2.2658    0.2272   -0.3051 C   0  0  2  0  0  0  0  0  0  0  0  0
    1.5825    0.5543    0.0116 C   0  0  0  0  0  0  0  0  0  0  0  0
    2.2883   -0.6503    0.1134 C   0  0  0  0  0  0  0  0  0  0  0  0
   -1.4087   -2.7187   -1.0627 C   0  0  0  0  0  0  0  0  0  0  0  0
   -3.5081    0.9902    0.0311 C   0  0  0  0  0  0  0  0  0  0  0  0
    2.3083    1.7580   -0.0903 C   0  0  0  0  0  0  0  0  0  0  0  0
    3.6867   -0.7057    0.1138 C   0  0  0  0  0  0  0  0  0  0  0  0
    3.7071    1.7153   -0.0908 C   0  0  0  0  0  0  0  0  0  0  0  0
    4.3835    0.5014    0.0092 C   0  0  0  0  0  0  0  0  0  0  0  0
   -1.1172   -2.6283    1.0587 H   0  0  0  0  0  0  0  0  0  0  0  0
   -1.1238    1.6001    0.9596 H   0  0  0  0  0  0  0  0  0  0  0  0
   -0.8974    1.8561   -0.7730 H   0  0  0  0  0  0  0  0  0  0  0  0
   -2.3146   -0.0246   -1.3719 H   0  0  0  0  0  0  0  0  0  0  0  0
   -3.1900   -1.5129    0.3012 H   0  0  0  0  0  0  0  0  0  0  0  0
    1.5854   -2.6496    0.2905 H   0  0  0  0  0  0  0  0  0  0  0  0
   -0.6103   -3.4547   -1.2123 H   0  0  0  0  0  0  0  0  0  0  0  0
   -2.3555   -3.2683   -1.0174 H   0  0  0  0  0  0  0  0  0  0  0  0
   -1.4278   -2.0797   -1.9524 H   0  0  0  0  0  0  0  0  0  0  0  0
    1.7949    2.7121   -0.1689 H   0  0  0  0  0  0  0  0  0  0  0  0
    4.2154   -1.6496    0.1935 H   0  0  0  0  0  0  0  0  0  0  0  0
    4.2710    2.6410   -0.1701 H   0  0  0  0  0  0  0  0  0  0  0  0
    5.4705    0.4916    0.0070 H   0  0  0  0  0  0  0  0  0  0  0  0
   -4.3921    2.6443   -0.4939 H   0  0  0  0  0  0  0  0  0  0  0  0
  1 13  1  0  0  0  0
  1 31  1  0  0  0  0
  2 13  2  0  0  0  0
  3  5  1  0  0  0  0
  3  9  1  0  0  0  0
  3 22  1  0  0  0  0
  4  7  1  0  0  0  0
  4 11  1  0  0  0  0
  4 23  1  0  0  0  0
  5  7  1  0  0  0  0
  5 12  1  0  0  0  0
  5 18  1  0  0  0  0
  6  7  2  0  0  0  0
  6  8  1  0  0  0  0
  6 10  1  0  0  0  0
  8  9  1  0  0  0  0
  8 19  1  0  0  0  0
  8 20  1  0  0  0  0
  9 13  1  0  0  0  0
  9 21  1  0  0  0  0
 10 11  1  0  0  0  0
 10 14  2  0  0  0  0
 11 15  2  0  0  0  0
 12 24  1  0  0  0  0
 12 25  1  0  0  0  0
 12 26  1  0  0  0  0
 14 16  1  0  0  0  0
 14 27  1  0  0  0  0
 15 17  1  0  0  0  0
 15 28  1  0  0  0  0
 16 17  2  0  0  0  0
 16 29  1  0  0  0  0
 17 30  1  0  0  0  0
M  END
> <PUBCHEM_COMPOUND_CID>
73530

> <PUBCHEM_CONFORMER_RMSD>
0.6

> <PUBCHEM_CONFORMER_DIVERSEORDER>
1
3
4
2

> <PUBCHEM_MMFF94_PARTIAL_CHARGES>
22
1 -0.65
11 -0.15
13 0.66
14 -0.15
15 -0.15
16 -0.15
17 -0.15
2 -0.57
22 0.36
23 0.27
27 0.15
28 0.15
29 0.15
3 -0.9
30 0.15
31 0.5
4 0.03
5 0.45
6 -0.18
7 -0.33
8 0.18
9 0.33

> <PUBCHEM_EFFECTIVE_ROTOR_COUNT>
1.8

> <PUBCHEM_PHARMACOPHORE_FEATURES>
10
1 1 acceptor
1 2 acceptor
1 3 cation
1 3 donor
1 4 cation
1 4 donor
3 1 2 13 anion
5 4 6 7 10 11 rings
6 10 11 14 15 16 17 rings
6 3 5 6 7 8 9 rings

> <PUBCHEM_HEAVY_ATOM_COUNT>
17

> <PUBCHEM_ATOM_DEF_STEREO_COUNT>
0

> <PUBCHEM_ATOM_UDEF_STEREO_COUNT>
2

> <PUBCHEM_BOND_DEF_STEREO_COUNT>
0

> <PUBCHEM_BOND_UDEF_STEREO_COUNT>
0

> <PUBCHEM_ISOTOPIC_ATOM_COUNT>
0

> <PUBCHEM_COMPONENT_COUNT>
1

> <PUBCHEM_CACTVS_TAUTO_COUNT>
1

> <PUBCHEM_CONFORMER_ID>
00011F3A00000001

> <PUBCHEM_MMFF94_ENERGY>
28.7829

> <PUBCHEM_FEATURE_SELFOVERLAP>
50.976

> <PUBCHEM_SHAPE_FINGERPRINT>
10062212 137 18336816589635638186
10608611 8 18338515356390726616
10967382 1 18410292467546931352
11132069 177 18411130364274551072
11471102 20 18410290277097844644
11543360 7 15697987574381071744
11578080 2 17058076963986265371
12173636 292 18412257350612908541
122479 349 18334297569319165867
12500047 106 18342451577889784760
13140716 1 18337385037088786530
13380535 76 18411981347208417150
13583140 156 16950548983281729649
14897335 6 18411134744814015266
15099037 51 18340771434081477166
15196674 1 18409730694525234528
15309172 13 18411986819328808419
15442244 35 18409443679230817530
15775835 57 18408888442526865912
16945 1 18337664226868848522
1741750 31 18343585156950252475
18186145 218 18271530801302016677
20510252 161 18269279134653313083
20645477 56 18341334482481386624
21267235 1 18337680814027485322
21501502 16 18337948021391539230
21524375 3 18410856547187599299
2334 1 18193555794945126970
23402539 116 18201711838697560108
23402655 69 18342735182933280836
23557571 272 17986965235255975718
23558518 356 17827356901821347936
23559900 14 18131069355839445704
238 59 17250572553781280957
25 1 18410290268222936980
2748010 2 18410301323479442878
335352 9 18337953381626795518
34934 24 18409722968068966690
5104073 3 18336825394355207176
633830 44 17916311524361975597
6430166 295 18408601448717750408
69090 78 18411416219938496943
7364860 26 18339924788743144554
7832392 63 18410571825263059660
81228 2 17976524332894342867
8272917 22 17983014454007538781
9709674 26 18412268362893672734

> <PUBCHEM_SHAPE_MULTIPOLES>
328.15
7.46
2.38
0.75
0.75
0.73
0.05
-3.62
-0.3
-1.08
0.48
-0.33
0.12
-0.18

> <PUBCHEM_SHAPE_SELFOVERLAP>
721.811

> <PUBCHEM_SHAPE_VOLUME>
176.1

> <PUBCHEM_COORDINATE_TYPE>
2
5
10

$$$$
