80714
  -OEChem-10241302543D

 22 22  0     0  0  0  0  0  0999 V2000
    2.8573    0.0063   -0.0861 S   0  0  0  0  0  0  0  0  0  0  0  0
    3.3199    0.0078    1.4821 O   0  0  0  0  0  0  0  0  0  0  0  0
    3.2983   -1.2578   -0.6575 O   0  0  0  0  0  0  0  0  0  0  0  0
    3.2658    1.2706   -0.6784 O   0  0  0  0  0  0  0  0  0  0  0  0
   -0.8716   -3.5490   -0.0109 O   0  0  0  0  0  0  0  0  0  0  0  0
   -0.8849    3.5452   -0.0064 O   0  0  0  0  0  0  0  0  0  0  0  0
   -2.9319   -2.5899    0.0323 O   0  0  0  0  0  0  0  0  0  0  0  0
   -2.9416    2.5784    0.0340 O   0  0  0  0  0  0  0  0  0  0  0  0
    1.1117    0.0018   -0.0493 C   0  0  0  0  0  0  0  0  0  0  0  0
    0.4122    1.2085   -0.0347 C   0  0  0  0  0  0  0  0  0  0  0  0
    0.4167   -1.2074   -0.0353 C   0  0  0  0  0  0  0  0  0  0  0  0
   -0.9824    1.2059   -0.0064 C   0  0  0  0  0  0  0  0  0  0  0  0
   -0.9779   -1.2100   -0.0070 C   0  0  0  0  0  0  0  0  0  0  0  0
   -1.6775   -0.0034    0.0074 C   0  0  0  0  0  0  0  0  0  0  0  0
   -1.7025   -2.4708    0.0075 C   0  0  0  0  0  0  0  0  0  0  0  0
   -1.7117    2.4639    0.0088 C   0  0  0  0  0  0  0  0  0  0  0  0
    0.9712    2.1397   -0.0362 H   0  0  0  0  0  0  0  0  0  0  0  0
    0.9802   -2.1360   -0.0382 H   0  0  0  0  0  0  0  0  0  0  0  0
   -2.7649   -0.0054    0.0295 H   0  0  0  0  0  0  0  0  0  0  0  0
    3.0379   -0.7781    2.0067 H   0  0  0  0  0  0  0  0  0  0  0  0
   -1.3699   -4.3940   -0.0015 H   0  0  0  0  0  0  0  0  0  0  0  0
   -1.3865    4.3882    0.0047 H   0  0  0  0  0  0  0  0  0  0  0  0
  1  2  1  0  0  0  0
  1  3  2  0  0  0  0
  1  4  2  0  0  0  0
  1  9  1  0  0  0  0
  2 20  1  0  0  0  0
  5 15  1  0  0  0  0
  5 21  1  0  0  0  0
  6 16  1  0  0  0  0
  6 22  1  0  0  0  0
  7 15  2  0  0  0  0
  8 16  2  0  0  0  0
  9 10  2  0  0  0  0
  9 11  1  0  0  0  0
 10 12  1  0  0  0  0
 10 17  1  0  0  0  0
 11 13  2  0  0  0  0
 11 18  1  0  0  0  0
 12 14  2  0  0  0  0
 12 16  1  0  0  0  0
 13 14  1  0  0  0  0
 13 15  1  0  0  0  0
 14 19  1  0  0  0  0
M  END
> <PUBCHEM_COMPOUND_CID>
80714

> <PUBCHEM_CONFORMER_RMSD>
0.6

> <PUBCHEM_CONFORMER_DIVERSEORDER>
1
2

> <PUBCHEM_MMFF94_PARTIAL_CHARGES>
22
1 1.49
10 -0.15
11 -0.15
12 0.09
13 0.09
14 -0.15
15 0.63
16 0.63
17 0.15
18 0.15
19 0.15
2 -0.68
20 0.5
21 0.5
22 0.5
3 -0.65
4 -0.65
5 -0.65
6 -0.65
7 -0.57
8 -0.57
9 -0.01

> <PUBCHEM_EFFECTIVE_ROTOR_COUNT>
3

> <PUBCHEM_PHARMACOPHORE_FEATURES>
11
1 2 acceptor
1 3 acceptor
1 4 acceptor
1 5 acceptor
1 6 acceptor
1 7 acceptor
1 8 acceptor
3 5 7 15 anion
3 6 8 16 anion
4 1 2 3 4 anion
6 9 10 11 12 13 14 rings

> <PUBCHEM_HEAVY_ATOM_COUNT>
16

> <PUBCHEM_ATOM_DEF_STEREO_COUNT>
0

> <PUBCHEM_ATOM_UDEF_STEREO_COUNT>
0

> <PUBCHEM_BOND_DEF_STEREO_COUNT>
0

> <PUBCHEM_BOND_UDEF_STEREO_COUNT>
0

> <PUBCHEM_ISOTOPIC_ATOM_COUNT>
0

> <PUBCHEM_COMPONENT_COUNT>
1

> <PUBCHEM_CACTVS_TAUTO_COUNT>
1

> <PUBCHEM_CONFORMER_ID>
00013B4A00000001

> <PUBCHEM_MMFF94_ENERGY>
37.4002

> <PUBCHEM_FEATURE_SELFOVERLAP>
55.999

> <PUBCHEM_SHAPE_FINGERPRINT>
1 1 17762338011477290405
10967382 1 18410858780370055197
12553582 1 18050570934629472262
13380535 76 18196650687916734239
13538477 17 18260543412050061384
14178342 30 18263344942235268770
15042514 8 18408608032818284307
15490181 7 18123480375422144015
15490181 8 18049432656742680247
16945 1 18410854364964248832
19591789 44 18051140194053095839
20510252 161 18342739593811823056
20645476 183 18117013091129946846
20645477 70 17397263829256396381
20711985 365 18410295809021211086
20871998 184 18201161047796456462
21524375 3 17984417434543449197
2334 1 17978227497679988203
23402539 116 18270384062630423255
23419403 2 17415818427097464137
23526114 1 17186162505115922271
23530152 11 18122626046439475631
23557571 272 18200043953200473980
23559900 14 18128257771632463782
23598294 1 18407761451714083312
257057 1 18050558839932618123
2748010 2 18049454642706317487
305870 269 17689432689742897560
3071541 12 17114385836283294053
3071541 236 18335406933686256449
3071541 250 17760944225859660229
3071541 37 17615697232481773397
3091708 16 9203372466054355481
352729 6 18338237046609415957
43471831 8 17976819792273967753
458136 41 17691990171037662657
54173680 148 18410295821752956679
7364860 26 17186443984572437239
81228 2 18340201985562676355
84936 182 17335609817939249832

> <PUBCHEM_SHAPE_MULTIPOLES>
292.04
4.7
3.95
0.74
3.78
0.02
-0.13
-0.01
-0.09
-4.11
0.09
0.52
0
0

> <PUBCHEM_SHAPE_SELFOVERLAP>
609.501

> <PUBCHEM_SHAPE_VOLUME>
165.6

> <PUBCHEM_COORDINATE_TYPE>
2
5
10

$$$$
