15475344
  -OEChem-10241303113D

 17 17  0     0  0  0  0  0  0999 V2000
    2.5525    0.9301    0.7672 O   0  0  0  0  0  0  0  0  0  0  0  0
   -0.2699    0.9936   -0.5610 N   0  0  0  0  0  0  0  0  0  0  0  0
   -2.4046    0.3391    0.3454 N   0  0  0  0  0  0  0  0  0  0  0  0
    1.5398   -0.5907   -0.8357 C   0  0  0  0  0  0  0  0  0  0  0  0
    0.1422   -0.2826   -0.4137 C   0  0  0  0  0  0  0  0  0  0  0  0
    2.5528   -0.4137    0.3015 C   0  0  0  0  0  0  0  0  0  0  0  0
   -0.6501   -1.2898    0.0985 C   0  0  0  0  0  0  0  0  0  0  0  0
   -1.9271   -0.9171    0.4649 C   0  0  0  0  0  0  0  0  0  0  0  0
   -1.5356    1.2310   -0.1671 C   0  0  0  0  0  0  0  0  0  0  0  0
    1.8069    0.0805   -1.6619 H   0  0  0  0  0  0  0  0  0  0  0  0
    1.6022   -1.6116   -1.2311 H   0  0  0  0  0  0  0  0  0  0  0  0
    3.5623   -0.6599   -0.0428 H   0  0  0  0  0  0  0  0  0  0  0  0
    2.3126   -1.0643    1.1486 H   0  0  0  0  0  0  0  0  0  0  0  0
   -0.3042   -2.3092    0.2126 H   0  0  0  0  0  0  0  0  0  0  0  0
   -2.6224   -1.6400    0.8780 H   0  0  0  0  0  0  0  0  0  0  0  0
   -1.8927    2.2479   -0.2741 H   0  0  0  0  0  0  0  0  0  0  0  0
    2.7739    1.5012    0.0119 H   0  0  0  0  0  0  0  0  0  0  0  0
  1  6  1  0  0  0  0
  1 17  1  0  0  0  0
  2  5  2  0  0  0  0
  2  9  1  0  0  0  0
  3  8  1  0  0  0  0
  3  9  2  0  0  0  0
  4  5  1  0  0  0  0
  4  6  1  0  0  0  0
  4 10  1  0  0  0  0
  4 11  1  0  0  0  0
  5  7  1  0  0  0  0
  6 12  1  0  0  0  0
  6 13  1  0  0  0  0
  7  8  2  0  0  0  0
  7 14  1  0  0  0  0
  8 15  1  0  0  0  0
  9 16  1  0  0  0  0
M  END
> <PUBCHEM_COMPOUND_CID>
15475344

> <PUBCHEM_CONFORMER_RMSD>
0.4

> <PUBCHEM_CONFORMER_DIVERSEORDER>
1
10
5
11
7
12
2
8
9
3
4
6

> <PUBCHEM_MMFF94_PARTIAL_CHARGES>
13
1 -0.68
14 0.15
15 0.15
16 0.15
17 0.4
2 -0.62
3 -0.62
4 0.14
5 0.17
6 0.28
7 -0.15
8 0.16
9 0.47

> <PUBCHEM_EFFECTIVE_ROTOR_COUNT>
2

> <PUBCHEM_PHARMACOPHORE_FEATURES>
5
1 1 acceptor
1 1 donor
1 2 acceptor
3 2 3 9 cation
6 2 3 5 7 8 9 rings

> <PUBCHEM_HEAVY_ATOM_COUNT>
9

> <PUBCHEM_ATOM_DEF_STEREO_COUNT>
0

> <PUBCHEM_ATOM_UDEF_STEREO_COUNT>
0

> <PUBCHEM_BOND_DEF_STEREO_COUNT>
0

> <PUBCHEM_BOND_UDEF_STEREO_COUNT>
0

> <PUBCHEM_ISOTOPIC_ATOM_COUNT>
0

> <PUBCHEM_COMPONENT_COUNT>
1

> <PUBCHEM_CACTVS_TAUTO_COUNT>
3

> <PUBCHEM_CONFORMER_ID>
00EC229000000001

> <PUBCHEM_MMFF94_ENERGY>
16.9445

> <PUBCHEM_FEATURE_SELFOVERLAP>
25.372

> <PUBCHEM_SHAPE_FINGERPRINT>
10857977 72 18334861653228329851
14390081 3 18202563951608394384
19973954 147 18201162065914740944
20645464 45 18272651234021349118
21040471 1 18117570517575992887
23552423 10 17823148963088840702
29004967 10 17417819396009286422
369184 2 18409160008903274410
5084963 1 18116164276421458830

> <PUBCHEM_SHAPE_MULTIPOLES>
169.38
3.56
1.32
0.82
1.3
0.06
-0.03
0.28
0.84
-0.36
0.03
0.25
0.01
0.35

> <PUBCHEM_SHAPE_SELFOVERLAP>
341.713

> <PUBCHEM_SHAPE_VOLUME>
97.3

> <PUBCHEM_COORDINATE_TYPE>
2
5
10

$$$$
