77531
  -OEChem-10241302503D

 10 10  0     0  0  0  0  0  0999 V2000
   -2.6301   -1.1343    0.0001 Cl  0  0  0  0  0  0  0  0  0  0  0  0
    2.5538   -1.2156    0.0000 Cl  0  0  0  0  0  0  0  0  0  0  0  0
   -0.0424   -0.9991   -0.0001 N   0  0  0  0  0  0  0  0  0  0  0  0
    1.2453    1.0378    0.0000 N   0  0  0  0  0  0  0  0  0  0  0  0
   -1.1596    1.1329    0.0001 C   0  0  0  0  0  0  0  0  0  0  0  0
   -1.1626   -0.2471   -0.0001 C   0  0  0  0  0  0  0  0  0  0  0  0
    0.0856    1.7273    0.0000 C   0  0  0  0  0  0  0  0  0  0  0  0
    1.1098   -0.3020    0.0001 C   0  0  0  0  0  0  0  0  0  0  0  0
   -2.0675    1.7225    0.0003 H   0  0  0  0  0  0  0  0  0  0  0  0
    0.1885    2.8072    0.0000 H   0  0  0  0  0  0  0  0  0  0  0  0
  1  6  1  0  0  0  0
  2  8  1  0  0  0  0
  3  6  2  0  0  0  0
  3  8  1  0  0  0  0
  4  7  1  0  0  0  0
  4  8  2  0  0  0  0
  5  6  1  0  0  0  0
  5  7  2  0  0  0  0
  5  9  1  0  0  0  0
  7 10  1  0  0  0  0
M  END
> <PUBCHEM_COMPOUND_CID>
77531

> <PUBCHEM_CONFORMER_RMSD>
0.4

> <PUBCHEM_CONFORMER_DIVERSEORDER>
1

> <PUBCHEM_MMFF94_PARTIAL_CHARGES>
10
1 -0.18
10 0.15
2 -0.18
3 -0.62
4 -0.62
5 -0.15
6 0.49
7 0.16
8 0.8
9 0.15

> <PUBCHEM_EFFECTIVE_ROTOR_COUNT>
0

> <PUBCHEM_PHARMACOPHORE_FEATURES>
3
1 3 acceptor
3 3 4 8 cation
6 3 4 5 6 7 8 rings

> <PUBCHEM_HEAVY_ATOM_COUNT>
8

> <PUBCHEM_ATOM_DEF_STEREO_COUNT>
0

> <PUBCHEM_ATOM_UDEF_STEREO_COUNT>
0

> <PUBCHEM_BOND_DEF_STEREO_COUNT>
0

> <PUBCHEM_BOND_UDEF_STEREO_COUNT>
0

> <PUBCHEM_ISOTOPIC_ATOM_COUNT>
0

> <PUBCHEM_COMPONENT_COUNT>
1

> <PUBCHEM_CACTVS_TAUTO_COUNT>
1

> <PUBCHEM_CONFORMER_ID>
00012EDB00000001

> <PUBCHEM_MMFF94_ENERGY>
13.162

> <PUBCHEM_FEATURE_SELFOVERLAP>
15.223

> <PUBCHEM_SHAPE_FINGERPRINT>
10857977 72 18340472392572344994
14128692 85 18410300211241084406
16714656 1 18050290267227386868
21040471 1 17041479990636640321
23552423 10 18259991435659025078
241688 4 18409166575929499217
29004967 10 18191306181169529827

> <PUBCHEM_SHAPE_MULTIPOLES>
158.41
3.17
1.77
0.61
0.18
0.47
0
-1.91
0
-0.08
0
-0.01
-0.01
0

> <PUBCHEM_SHAPE_SELFOVERLAP>
308.364

> <PUBCHEM_SHAPE_VOLUME>
95.6

> <PUBCHEM_COORDINATE_TYPE>
2
5
10

$$$$
