151521
  -OEChem-10241302543D

 61 64  0     1  0  0  0  0  0999 V2000
   -3.3141   -0.2531   -1.8035 O   0  0  0  0  0  0  0  0  0  0  0  0
    3.2342    3.0282   -0.0674 O   0  0  0  0  0  0  0  0  0  0  0  0
   -4.5982   -1.9303    0.0771 O   0  0  0  0  0  0  0  0  0  0  0  0
    5.4734   -0.9619   -0.8776 O   0  0  0  0  0  0  0  0  0  0  0  0
   -1.2171    0.8811   -0.1947 C   0  0  1  0  0  0  0  0  0  0  0  0
    0.1665    0.8864    0.4685 C   0  0  1  0  0  0  0  0  0  0  0  0
   -2.1559   -0.2131    0.3670 C   0  0  1  0  0  0  0  0  0  0  0  0
    0.8432   -0.5030    0.2345 C   0  0  1  0  0  0  0  0  0  0  0  0
    2.2954   -0.5662    0.8442 C   0  0  2  0  0  0  0  0  0  0  0  0
   -3.4547    0.1214   -0.4263 C   0  0  1  0  0  0  0  0  0  0  0  0
    3.1476    0.6210    0.2766 C   0  0  2  0  0  0  0  0  0  0  0  0
   -1.5018   -1.5736    0.0721 C   0  0  0  0  0  0  0  0  0  0  0  0
   -0.0834   -1.6715    0.6651 C   0  0  0  0  0  0  0  0  0  0  0  0
    1.0395    2.0286   -0.0645 C   0  0  0  0  0  0  0  0  0  0  0  0
   -2.0647    2.1491   -0.1305 C   0  0  0  0  0  0  0  0  0  0  0  0
    2.4552    1.9815    0.5080 C   0  0  2  0  0  0  0  0  0  0  0  0
   -3.5085    1.6692   -0.3879 C   0  0  0  0  0  0  0  0  0  0  0  0
    3.0206   -1.9026    0.5131 C   0  0  0  0  0  0  0  0  0  0  0  0
   -2.4083   -0.0883    1.8942 C   0  0  0  0  0  0  0  0  0  0  0  0
    3.5215    0.4231   -1.2167 C   0  0  0  0  0  0  0  0  0  0  0  0
    2.2521   -0.4792    2.3922 C   0  0  0  0  0  0  0  0  0  0  0  0
   -4.7437   -0.5149    0.0853 C   0  0  1  0  0  0  0  0  0  0  0  0
    3.3530   -2.0821   -0.9663 C   0  0  0  0  0  0  0  0  0  0  0  0
    4.1879   -0.9228   -1.4945 C   0  0  2  0  0  0  0  0  0  0  0  0
   -5.9396   -0.1271   -0.7680 C   0  0  0  0  0  0  0  0  0  0  0  0
   -1.0448    0.6835   -1.2653 H   0  0  0  0  0  0  0  0  0  0  0  0
    0.0408    1.0575    1.5422 H   0  0  0  0  0  0  0  0  0  0  0  0
    0.9433   -0.6092   -0.8544 H   0  0  0  0  0  0  0  0  0  0  0  0
    4.1028    0.6547    0.8214 H   0  0  0  0  0  0  0  0  0  0  0  0
   -1.4316   -1.7401   -1.0100 H   0  0  0  0  0  0  0  0  0  0  0  0
   -2.1006   -2.3977    0.4726 H   0  0  0  0  0  0  0  0  0  0  0  0
   -0.1503   -1.7273    1.7557 H   0  0  0  0  0  0  0  0  0  0  0  0
    0.3409   -2.6252    0.3332 H   0  0  0  0  0  0  0  0  0  0  0  0
    1.0684    2.0084   -1.1612 H   0  0  0  0  0  0  0  0  0  0  0  0
    0.5928    2.9983    0.1894 H   0  0  0  0  0  0  0  0  0  0  0  0
   -1.7530    2.8834   -0.8807 H   0  0  0  0  0  0  0  0  0  0  0  0
   -1.9938    2.6303    0.8515 H   0  0  0  0  0  0  0  0  0  0  0  0
    2.4141    2.1913    1.5821 H   0  0  0  0  0  0  0  0  0  0  0  0
   -4.1455    2.0349    0.4261 H   0  0  0  0  0  0  0  0  0  0  0  0
   -3.8824    2.1029   -1.3221 H   0  0  0  0  0  0  0  0  0  0  0  0
    2.4371   -2.7628    0.8586 H   0  0  0  0  0  0  0  0  0  0  0  0
    3.9608   -1.9493    1.0806 H   0  0  0  0  0  0  0  0  0  0  0  0
   -2.9241    0.8396    2.1600 H   0  0  0  0  0  0  0  0  0  0  0  0
   -3.0210   -0.9177    2.2623 H   0  0  0  0  0  0  0  0  0  0  0  0
   -1.4861   -0.1094    2.4804 H   0  0  0  0  0  0  0  0  0  0  0  0
    2.6369    0.5171   -1.8551 H   0  0  0  0  0  0  0  0  0  0  0  0
    4.2205    1.2126   -1.5180 H   0  0  0  0  0  0  0  0  0  0  0  0
    1.7064    0.3936    2.7581 H   0  0  0  0  0  0  0  0  0  0  0  0
    1.7829   -1.3662    2.8307 H   0  0  0  0  0  0  0  0  0  0  0  0
    3.2657   -0.4188    2.8063 H   0  0  0  0  0  0  0  0  0  0  0  0
   -4.9597   -0.2049    1.1140 H   0  0  0  0  0  0  0  0  0  0  0  0
    3.9047   -3.0225   -1.0848 H   0  0  0  0  0  0  0  0  0  0  0  0
    2.4316   -2.1774   -1.5510 H   0  0  0  0  0  0  0  0  0  0  0  0
    4.3430   -1.0351   -2.5733 H   0  0  0  0  0  0  0  0  0  0  0  0
   -3.9544    0.2440   -2.3387 H   0  0  0  0  0  0  0  0  0  0  0  0
    3.0750    3.0410   -1.0261 H   0  0  0  0  0  0  0  0  0  0  0  0
   -5.8791   -0.5452   -1.7783 H   0  0  0  0  0  0  0  0  0  0  0  0
   -6.8512   -0.5531   -0.3322 H   0  0  0  0  0  0  0  0  0  0  0  0
   -6.0793    0.9553   -0.8329 H   0  0  0  0  0  0  0  0  0  0  0  0
   -4.2161   -2.1954    0.9298 H   0  0  0  0  0  0  0  0  0  0  0  0
    5.8813   -1.8158   -1.1013 H   0  0  0  0  0  0  0  0  0  0  0  0
  1 10  1  0  0  0  0
  1 55  1  0  0  0  0
  2 16  1  0  0  0  0
  2 56  1  0  0  0  0
  3 22  1  0  0  0  0
  3 60  1  0  0  0  0
  4 24  1  0  0  0  0
  4 61  1  0  0  0  0
  5  6  1  0  0  0  0
  5  7  1  0  0  0  0
  5 15  1  0  0  0  0
  5 26  1  0  0  0  0
  6  8  1  0  0  0  0
  6 14  1  0  0  0  0
  6 27  1  0  0  0  0
  7 10  1  0  0  0  0
  7 12  1  0  0  0  0
  7 19  1  0  0  0  0
  8  9  1  0  0  0  0
  8 13  1  0  0  0  0
  8 28  1  0  0  0  0
  9 11  1  0  0  0  0
  9 18  1  0  0  0  0
  9 21  1  0  0  0  0
 10 17  1  0  0  0  0
 10 22  1  0  0  0  0
 11 16  1  0  0  0  0
 11 20  1  0  0  0  0
 11 29  1  0  0  0  0
 12 13  1  0  0  0  0
 12 30  1  0  0  0  0
 12 31  1  0  0  0  0
 13 32  1  0  0  0  0
 13 33  1  0  0  0  0
 14 16  1  0  0  0  0
 14 34  1  0  0  0  0
 14 35  1  0  0  0  0
 15 17  1  0  0  0  0
 15 36  1  0  0  0  0
 15 37  1  0  0  0  0
 16 38  1  0  0  0  0
 17 39  1  0  0  0  0
 17 40  1  0  0  0  0
 18 23  1  0  0  0  0
 18 41  1  0  0  0  0
 18 42  1  0  0  0  0
 19 43  1  0  0  0  0
 19 44  1  0  0  0  0
 19 45  1  0  0  0  0
 20 24  1  0  0  0  0
 20 46  1  0  0  0  0
 20 47  1  0  0  0  0
 21 48  1  0  0  0  0
 21 49  1  0  0  0  0
 21 50  1  0  0  0  0
 22 25  1  0  0  0  0
 22 51  1  0  0  0  0
 23 24  1  0  0  0  0
 23 52  1  0  0  0  0
 23 53  1  0  0  0  0
 24 54  1  0  0  0  0
 25 57  1  0  0  0  0
 25 58  1  0  0  0  0
 25 59  1  0  0  0  0
M  END
> <PUBCHEM_COMPOUND_CID>
151521

> <PUBCHEM_CONFORMER_RMSD>
0.6

> <PUBCHEM_CONFORMER_DIVERSEORDER>
1
10
11
9
7
3
12
5
13
6
2
4
8

> <PUBCHEM_MMFF94_PARTIAL_CHARGES>
12
1 -0.68
10 0.28
16 0.28
2 -0.68
22 0.28
24 0.28
3 -0.68
4 -0.68
55 0.4
56 0.4
60 0.4
61 0.4

> <PUBCHEM_EFFECTIVE_ROTOR_COUNT>
3.2

> <PUBCHEM_PHARMACOPHORE_FEATURES>
12
1 1 acceptor
1 1 donor
1 2 acceptor
1 2 donor
1 3 acceptor
1 3 donor
1 4 acceptor
1 4 donor
5 5 7 10 15 17 rings
6 5 6 7 8 12 13 rings
6 6 8 9 11 14 16 rings
6 9 11 18 20 23 24 rings

> <PUBCHEM_HEAVY_ATOM_COUNT>
25

> <PUBCHEM_ATOM_DEF_STEREO_COUNT>
6

> <PUBCHEM_ATOM_UDEF_STEREO_COUNT>
4

> <PUBCHEM_BOND_DEF_STEREO_COUNT>
0

> <PUBCHEM_BOND_UDEF_STEREO_COUNT>
0

> <PUBCHEM_ISOTOPIC_ATOM_COUNT>
0

> <PUBCHEM_COMPONENT_COUNT>
1

> <PUBCHEM_CACTVS_TAUTO_COUNT>
1

> <PUBCHEM_CONFORMER_ID>
00024FE100000001

> <PUBCHEM_MMFF94_ENERGY>
98.6761

> <PUBCHEM_FEATURE_SELFOVERLAP>
61.029

> <PUBCHEM_SHAPE_FINGERPRINT>
10366900 7 17894354362621812897
10498660 4 18259986006556547299
11961588 58 17386017216735722452
12011746 2 18260551112662692215
12236239 1 17704074006101463609
12553582 1 18411132511293838849
12670546 177 18259989257873430927
12788726 201 18115022992438140993
12916754 54 18343587352095278529
13224815 77 18333728022501738673
13533116 47 17917713543278742945
13583140 156 15864081970005238441
13944108 23 16024770857304973965
14739800 52 13695584494545921580
14790565 3 17259632443373678512
15142383 8 15840998762746336427
15163728 17 15937518249093672687
15196674 1 18409444778547350889
15238133 3 17750786662886345992
15536298 74 18412541041645154505
15635459 17 18408044022023511568
15664445 248 17676772079785125916
16752209 62 18336261237035998513
16945 1 18409169926373047320
17349148 13 17275108323247880287
17492 54 18263947539210660444
1813 80 17845385375028167348
18186145 218 18334006186085128749
19784866 240 17203618055434426446
19862831 5 18334300833700071492
200 152 17847062164108482930
20645477 70 18410854399556401196
20691752 17 17240483580744469185
20871999 31 18336554815336083102
21267235 1 18411143532644254467
221357 26 18411418384570456821
221490 88 18410579508511068370
22182313 1 18044387246874680419
22393880 68 18260824878273391869
23402539 116 18268150868952771670
23503953 91 10591754385744118991
23559900 14 18412259566615702753
239999 70 18410009974699836348
2748010 2 17975704101551821736
2871803 45 18334856125642492445
296302 2 12757153489039268539
312423 11 18202294601451272881
3323516 105 18409168813596696334
350125 39 18337113354791030289
46194498 28 18343869922172560220
474 4 16443360796654677934
5104073 3 18335415764672229001
5281201 14 18342459226962944404
59755656 215 18338517555804651692
633830 44 18411129243340710981
6786 2 11119640050421091968
6823239 73 18413105069930552146
7364860 26 18342738559352490936
9709674 26 18337110180287491539

> <PUBCHEM_SHAPE_MULTIPOLES>
491.01
10.28
2.39
1.44
5.4
0.95
-0.38
-2.45
3.72
-1.27
0.06
-0.67
-0.34
0.47

> <PUBCHEM_SHAPE_SELFOVERLAP>
1040.549

> <PUBCHEM_SHAPE_VOLUME>
273

> <PUBCHEM_COORDINATE_TYPE>
2
5
10

$$$$
