84703
  -OEChem-10241303123D

 59 58  0     0  0  0  0  0  0999 V2000
    2.4805    3.6603    0.4575 S   0  0  0  0  0  0  0  0  0  0  0  0
    1.7295    3.0706    1.5647 O   0  5  0  0  0  0  0  0  0  0  0  0
    3.2260    4.8722    0.7940 O   0  0  0  0  0  0  0  0  0  0  0  0
    1.7654    3.7093   -0.8168 O   0  0  0  0  0  0  0  0  0  0  0  0
    3.5721   -1.2777   -0.8615 N   0  3  0  0  0  0  0  0  0  0  0  0
    2.8116   -1.8157    0.2902 C   0  0  0  0  0  0  0  0  0  0  0  0
    4.2286    0.0646   -0.5057 C   0  0  0  0  0  0  0  0  0  0  0  0
    2.1688   -3.1504   -0.0662 C   0  0  0  0  0  0  0  0  0  0  0  0
    4.6817   -2.2504   -1.2880 C   0  0  0  0  0  0  0  0  0  0  0  0
    2.6502   -1.0501   -2.0686 C   0  0  0  0  0  0  0  0  0  0  0  0
    1.3067   -3.7891    1.0290 C   0  0  0  0  0  0  0  0  0  0  0  0
    3.1694    1.1189   -0.2139 C   0  0  0  0  0  0  0  0  0  0  0  0
    0.1440   -2.9355    1.5442 C   0  0  0  0  0  0  0  0  0  0  0  0
   -0.8206   -2.4916    0.4415 C   0  0  0  0  0  0  0  0  0  0  0  0
    3.7542    2.4745    0.1585 C   0  0  0  0  0  0  0  0  0  0  0  0
   -2.0080   -1.7207    1.0247 C   0  0  0  0  0  0  0  0  0  0  0  0
   -3.0222   -1.2742   -0.0322 C   0  0  0  0  0  0  0  0  0  0  0  0
   -4.1964   -0.4825    0.5478 C   0  0  0  0  0  0  0  0  0  0  0  0
   -5.2140   -0.1255   -0.5382 C   0  0  0  0  0  0  0  0  0  0  0  0
   -6.4076    0.6325    0.0455 C   0  0  0  0  0  0  0  0  0  0  0  0
   -7.4080    1.0182   -1.0438 C   0  0  0  0  0  0  0  0  0  0  0  0
   -8.6120    1.7424   -0.4628 C   0  0  0  0  0  0  0  0  0  0  0  0
    2.0243   -1.1104    0.5607 H   0  0  0  0  0  0  0  0  0  0  0  0
    3.4950   -1.9249    1.1405 H   0  0  0  0  0  0  0  0  0  0  0  0
    4.8545    0.3680   -1.3534 H   0  0  0  0  0  0  0  0  0  0  0  0
    4.8730   -0.1084    0.3641 H   0  0  0  0  0  0  0  0  0  0  0  0
    1.5453   -3.0731   -0.9618 H   0  0  0  0  0  0  0  0  0  0  0  0
    2.9411   -3.8930   -0.2943 H   0  0  0  0  0  0  0  0  0  0  0  0
    5.3075   -1.7480   -2.0325 H   0  0  0  0  0  0  0  0  0  0  0  0
    4.2437   -3.1422   -1.7421 H   0  0  0  0  0  0  0  0  0  0  0  0
    5.2750   -2.5036   -0.4047 H   0  0  0  0  0  0  0  0  0  0  0  0
    2.4622   -2.0075   -2.5635 H   0  0  0  0  0  0  0  0  0  0  0  0
    3.1594   -0.3890   -2.7771 H   0  0  0  0  0  0  0  0  0  0  0  0
    1.7044   -0.6172   -1.7313 H   0  0  0  0  0  0  0  0  0  0  0  0
    1.9499   -4.0442    1.8805 H   0  0  0  0  0  0  0  0  0  0  0  0
    0.9085   -4.7385    0.6488 H   0  0  0  0  0  0  0  0  0  0  0  0
    2.5205    1.2650   -1.0823 H   0  0  0  0  0  0  0  0  0  0  0  0
    2.5262    0.8073    0.6127 H   0  0  0  0  0  0  0  0  0  0  0  0
    0.5337   -2.0563    2.0704 H   0  0  0  0  0  0  0  0  0  0  0  0
   -0.4050   -3.5222    2.2913 H   0  0  0  0  0  0  0  0  0  0  0  0
   -0.3050   -1.8501   -0.2814 H   0  0  0  0  0  0  0  0  0  0  0  0
   -1.1861   -3.3700   -0.1035 H   0  0  0  0  0  0  0  0  0  0  0  0
    4.3607    2.4010    1.0673 H   0  0  0  0  0  0  0  0  0  0  0  0
    4.3841    2.8620   -0.6490 H   0  0  0  0  0  0  0  0  0  0  0  0
   -1.6364   -0.8379    1.5599 H   0  0  0  0  0  0  0  0  0  0  0  0
   -2.5192   -2.3480    1.7656 H   0  0  0  0  0  0  0  0  0  0  0  0
   -3.4043   -2.1612   -0.5528 H   0  0  0  0  0  0  0  0  0  0  0  0
   -2.5112   -0.6613   -0.7851 H   0  0  0  0  0  0  0  0  0  0  0  0
   -4.6864   -1.0770    1.3283 H   0  0  0  0  0  0  0  0  0  0  0  0
   -3.8233    0.4323    1.0236 H   0  0  0  0  0  0  0  0  0  0  0  0
   -4.7281    0.4870   -1.3074 H   0  0  0  0  0  0  0  0  0  0  0  0
   -5.5670   -1.0409   -1.0286 H   0  0  0  0  0  0  0  0  0  0  0  0
   -6.0557    1.5370    0.5565 H   0  0  0  0  0  0  0  0  0  0  0  0
   -6.9046    0.0087    0.7985 H   0  0  0  0  0  0  0  0  0  0  0  0
   -7.7501    0.1199   -1.5706 H   0  0  0  0  0  0  0  0  0  0  0  0
   -6.9216    1.6635   -1.7845 H   0  0  0  0  0  0  0  0  0  0  0  0
   -9.1404    1.1099    0.2576 H   0  0  0  0  0  0  0  0  0  0  0  0
   -9.3139    2.0098   -1.2590 H   0  0  0  0  0  0  0  0  0  0  0  0
   -8.3082    2.6630    0.0457 H   0  0  0  0  0  0  0  0  0  0  0  0
  1  2  1  0  0  0  0
  1  3  2  0  0  0  0
  1  4  2  0  0  0  0
  1 15  1  0  0  0  0
  5  6  1  0  0  0  0
  5  7  1  0  0  0  0
  5  9  1  0  0  0  0
  5 10  1  0  0  0  0
  6  8  1  0  0  0  0
  6 23  1  0  0  0  0
  6 24  1  0  0  0  0
  7 12  1  0  0  0  0
  7 25  1  0  0  0  0
  7 26  1  0  0  0  0
  8 11  1  0  0  0  0
  8 27  1  0  0  0  0
  8 28  1  0  0  0  0
  9 29  1  0  0  0  0
  9 30  1  0  0  0  0
  9 31  1  0  0  0  0
 10 32  1  0  0  0  0
 10 33  1  0  0  0  0
 10 34  1  0  0  0  0
 11 13  1  0  0  0  0
 11 35  1  0  0  0  0
 11 36  1  0  0  0  0
 12 15  1  0  0  0  0
 12 37  1  0  0  0  0
 12 38  1  0  0  0  0
 13 14  1  0  0  0  0
 13 39  1  0  0  0  0
 13 40  1  0  0  0  0
 14 16  1  0  0  0  0
 14 41  1  0  0  0  0
 14 42  1  0  0  0  0
 15 43  1  0  0  0  0
 15 44  1  0  0  0  0
 16 17  1  0  0  0  0
 16 45  1  0  0  0  0
 16 46  1  0  0  0  0
 17 18  1  0  0  0  0
 17 47  1  0  0  0  0
 17 48  1  0  0  0  0
 18 19  1  0  0  0  0
 18 49  1  0  0  0  0
 18 50  1  0  0  0  0
 19 20  1  0  0  0  0
 19 51  1  0  0  0  0
 19 52  1  0  0  0  0
 20 21  1  0  0  0  0
 20 53  1  0  0  0  0
 20 54  1  0  0  0  0
 21 22  1  0  0  0  0
 21 55  1  0  0  0  0
 21 56  1  0  0  0  0
 22 57  1  0  0  0  0
 22 58  1  0  0  0  0
 22 59  1  0  0  0  0
M  CHG  2   2  -1   5   1
M  END
> <PUBCHEM_COMPOUND_CID>
84703

> <PUBCHEM_CONFORMER_RMSD>
1.4

> <PUBCHEM_CONFORMER_DIVERSEORDER>
2
15
76
27
26
13
7
51
62
55
71
63
54
56
39
52
22
69
28
19
4
43
12
30
14
35
16
66
31
36
47
73
72
48
1
61
50
6
57
11
24
46
33
34
58
32
29
8
3
37
60
20
67
75
9
18
68
21
38
59
23
42
45
41
49
74
53
5
44
17
65
70
10
40
64
25
77

> <PUBCHEM_MMFF94_PARTIAL_CHARGES>
10
1 1.34
10 0.5
15 0.11
2 -0.82
3 -0.82
4 -0.82
5 -1.01
6 0.5
7 0.5
9 0.5

> <PUBCHEM_EFFECTIVE_ROTOR_COUNT>
15

> <PUBCHEM_PHARMACOPHORE_FEATURES>
6
1 2 acceptor
1 22 hydrophobe
1 3 acceptor
1 4 acceptor
1 5 cation
4 1 2 3 4 anion

> <PUBCHEM_HEAVY_ATOM_COUNT>
22

> <PUBCHEM_ATOM_DEF_STEREO_COUNT>
0

> <PUBCHEM_ATOM_UDEF_STEREO_COUNT>
0

> <PUBCHEM_BOND_DEF_STEREO_COUNT>
0

> <PUBCHEM_BOND_UDEF_STEREO_COUNT>
0

> <PUBCHEM_ISOTOPIC_ATOM_COUNT>
0

> <PUBCHEM_COMPONENT_COUNT>
1

> <PUBCHEM_CACTVS_TAUTO_COUNT>
1

> <PUBCHEM_CONFORMER_ID>
00014ADF00000002

> <PUBCHEM_MMFF94_ENERGY>
33.6908

> <PUBCHEM_FEATURE_SELFOVERLAP>
30.515

> <PUBCHEM_SHAPE_FINGERPRINT>
10638233 991 18340770326686484817
10675989 125 18411981381784979617
12104220 4 17096367413537662644
12769317 202 18340768251331232906
14223995 32 18122904489555215864
14251764 38 18050285066059427822
14556957 393 17274831216944260201
14931854 50 18340503187519382548
15322687 12 18409729573317341579
15326921 28 17263551610148630528
16988056 13 18411704270673830684
1768 85 18265912400596325811
18335252 114 18338232648679735751
20609170 109 7968543044842698132
20621476 13 18268435813914748392
20715895 44 18410287051318826072
21049683 118 17313096467468760763
21315763 76 18342177765045202787
21344244 78 17682377171047011762
21388113 180 18192432089735171177
21475661 188 18337672039467172438
21860390 5 18200606886021408230
5047190 2 18128828434930515337
5047190 47 18338506462294880245
5312510 48 18410011031578321889
54672768 99 18050855712905304872
57091435 61 18336819879633042147
58902169 19 17988352681834427399
59521099 67 18196924487787075499

> <PUBCHEM_SHAPE_MULTIPOLES>
434.01
16.85
6.08
1.38
50.45
5.46
0.2
9.65
6.32
-9.27
-2.41
-0.86
-0.36
2.38

> <PUBCHEM_SHAPE_SELFOVERLAP>
792.138

> <PUBCHEM_SHAPE_VOLUME>
278.2

> <PUBCHEM_COORDINATE_TYPE>
2
5
10

$$$$
