6451899
  -OEChem-10241302573D

 48 48  0     1  0  0  0  0  0999 V2000
   -6.9559   -1.5708   -1.0250 Br  0  0  0  0  0  0  0  0  0  0  0  0
   -0.1022   -0.4603    0.2889 S   0  0  0  0  0  0  0  0  0  0  0  0
    3.3000    2.6831    1.6253 O   0  0  0  0  0  0  0  0  0  0  0  0
    3.2464   -0.9956   -1.3953 O   0  0  0  0  0  0  0  0  0  0  0  0
   -1.9092    4.5219    0.3747 O   0  0  0  0  0  0  0  0  0  0  0  0
   -1.3167    4.0846   -1.7733 O   0  0  0  0  0  0  0  0  0  0  0  0
    1.2276   -3.7480   -0.3436 O   0  0  0  0  0  0  0  0  0  0  0  0
    2.5276   -5.4319   -1.1321 O   0  0  0  0  0  0  0  0  0  0  0  0
    2.6151    1.2589   -0.0739 N   0  0  0  0  0  0  0  0  0  0  0  0
    3.2176   -2.2964    0.5257 N   0  0  0  0  0  0  0  0  0  0  0  0
    2.6330    0.0460    0.7092 C   0  0  1  0  0  0  0  0  0  0  0  0
    1.3025   -0.2067    1.4225 C   0  0  0  0  0  0  0  0  0  0  0  0
    2.8252    3.6052   -0.5642 C   0  0  0  0  0  0  0  0  0  0  0  0
    1.4123    3.7626   -1.1231 C   0  0  0  0  0  0  0  0  0  0  0  0
    2.9560    2.4923    0.4620 C   0  0  0  0  0  0  0  0  0  0  0  0
    3.0708   -1.1130   -0.1841 C   0  0  0  0  0  0  0  0  0  0  0  0
    0.3850    4.0714   -0.0320 C   0  0  0  0  0  0  0  0  0  0  0  0
   -1.4046   -0.6262    1.5295 C   0  0  0  0  0  0  0  0  0  0  0  0
   -2.7545   -0.8558    0.9077 C   0  0  0  0  0  0  0  0  0  0  0  0
    3.6007   -3.5391   -0.1025 C   0  0  0  0  0  0  0  0  0  0  0  0
   -1.0094    4.2186   -0.5971 C   0  0  0  0  0  0  0  0  0  0  0  0
   -3.1942   -2.1553    0.6553 C   0  0  0  0  0  0  0  0  0  0  0  0
   -3.5673    0.2306    0.5839 C   0  0  0  0  0  0  0  0  0  0  0  0
   -4.4465   -2.3684    0.0791 C   0  0  0  0  0  0  0  0  0  0  0  0
   -4.8195    0.0177    0.0076 C   0  0  0  0  0  0  0  0  0  0  0  0
   -5.2591   -1.2818   -0.2448 C   0  0  0  0  0  0  0  0  0  0  0  0
    2.4194   -4.3435   -0.5805 C   0  0  0  0  0  0  0  0  0  0  0  0
    3.4106    0.1587    1.4764 H   0  0  0  0  0  0  0  0  0  0  0  0
    1.0662    0.6555    2.0568 H   0  0  0  0  0  0  0  0  0  0  0  0
    1.3715   -1.0833    2.0740 H   0  0  0  0  0  0  0  0  0  0  0  0
    2.3500    1.1915   -1.0520 H   0  0  0  0  0  0  0  0  0  0  0  0
    3.5255    3.3982   -1.3821 H   0  0  0  0  0  0  0  0  0  0  0  0
    3.1480    4.5410   -0.0932 H   0  0  0  0  0  0  0  0  0  0  0  0
    1.4155    4.5757   -1.8599 H   0  0  0  0  0  0  0  0  0  0  0  0
    1.1091    2.8612   -1.6685 H   0  0  0  0  0  0  0  0  0  0  0  0
    0.3556    3.2631    0.7064 H   0  0  0  0  0  0  0  0  0  0  0  0
    0.6508    5.0071    0.4718 H   0  0  0  0  0  0  0  0  0  0  0  0
   -1.4347    0.2787    2.1475 H   0  0  0  0  0  0  0  0  0  0  0  0
   -1.1628   -1.4588    2.2003 H   0  0  0  0  0  0  0  0  0  0  0  0
    3.0712   -2.3035    1.5302 H   0  0  0  0  0  0  0  0  0  0  0  0
    4.2481   -3.3275   -0.9586 H   0  0  0  0  0  0  0  0  0  0  0  0
    4.1426   -4.1256    0.6446 H   0  0  0  0  0  0  0  0  0  0  0  0
   -2.5700   -3.0101    0.9018 H   0  0  0  0  0  0  0  0  0  0  0  0
   -3.2358    1.2481    0.7742 H   0  0  0  0  0  0  0  0  0  0  0  0
   -4.7740   -3.3872   -0.1113 H   0  0  0  0  0  0  0  0  0  0  0  0
   -5.4402    0.8753   -0.2391 H   0  0  0  0  0  0  0  0  0  0  0  0
   -2.8172    4.6157    0.0155 H   0  0  0  0  0  0  0  0  0  0  0  0
    0.4753   -4.2898   -0.6640 H   0  0  0  0  0  0  0  0  0  0  0  0
  1 26  1  0  0  0  0
  2 12  1  0  0  0  0
  2 18  1  0  0  0  0
  3 15  2  0  0  0  0
  4 16  2  0  0  0  0
  5 21  1  0  0  0  0
  5 47  1  0  0  0  0
  6 21  2  0  0  0  0
  7 27  1  0  0  0  0
  7 48  1  0  0  0  0
  8 27  2  0  0  0  0
  9 11  1  0  0  0  0
  9 15  1  0  0  0  0
  9 31  1  0  0  0  0
 10 16  1  0  0  0  0
 10 20  1  0  0  0  0
 10 40  1  0  0  0  0
 11 12  1  0  0  0  0
 11 16  1  0  0  0  0
 11 28  1  0  0  0  0
 12 29  1  0  0  0  0
 12 30  1  0  0  0  0
 13 14  1  0  0  0  0
 13 15  1  0  0  0  0
 13 32  1  0  0  0  0
 13 33  1  0  0  0  0
 14 17  1  0  0  0  0
 14 34  1  0  0  0  0
 14 35  1  0  0  0  0
 17 21  1  0  0  0  0
 17 36  1  0  0  0  0
 17 37  1  0  0  0  0
 18 19  1  0  0  0  0
 18 38  1  0  0  0  0
 18 39  1  0  0  0  0
 19 22  2  0  0  0  0
 19 23  1  0  0  0  0
 20 27  1  0  0  0  0
 20 41  1  0  0  0  0
 20 42  1  0  0  0  0
 22 24  1  0  0  0  0
 22 43  1  0  0  0  0
 23 25  2  0  0  0  0
 23 44  1  0  0  0  0
 24 26  2  0  0  0  0
 24 45  1  0  0  0  0
 25 26  1  0  0  0  0
 25 46  1  0  0  0  0
M  END
> <PUBCHEM_COMPOUND_CID>
6451899

> <PUBCHEM_CONFORMER_RMSD>
1.2

> <PUBCHEM_CONFORMER_DIVERSEORDER>
1
61
62
19
32
11
29
30
26
38
53
13
58
8
4
45
52
9
37
5
60
15
44
23
14
12
34
7
17
25
57
31
43
42
36
39
3
20
24
21
49
55
56
59
50
33
6
46
22
27
16
28
40
51
48
47
41
35
54
2
10
18

> <PUBCHEM_MMFF94_PARTIAL_CHARGES>
34
1 -0.11
10 -0.73
11 0.36
12 0.23
13 0.06
15 0.57
16 0.57
17 0.06
18 0.37
19 -0.14
2 -0.46
20 0.36
21 0.66
22 -0.15
23 -0.15
24 -0.15
25 -0.15
26 0.11
27 0.66
3 -0.57
31 0.37
4 -0.57
40 0.37
43 0.15
44 0.15
45 0.15
46 0.15
47 0.5
48 0.5
5 -0.65
6 -0.57
7 -0.65
8 -0.57
9 -0.73

> <PUBCHEM_EFFECTIVE_ROTOR_COUNT>
14

> <PUBCHEM_PHARMACOPHORE_FEATURES>
12
1 1 hydrophobe
1 10 donor
1 3 acceptor
1 4 acceptor
1 5 acceptor
1 6 acceptor
1 7 acceptor
1 8 acceptor
1 9 donor
3 5 6 21 anion
3 7 8 27 anion
6 19 22 23 24 25 26 rings

> <PUBCHEM_HEAVY_ATOM_COUNT>
27

> <PUBCHEM_ATOM_DEF_STEREO_COUNT>
1

> <PUBCHEM_ATOM_UDEF_STEREO_COUNT>
0

> <PUBCHEM_BOND_DEF_STEREO_COUNT>
0

> <PUBCHEM_BOND_UDEF_STEREO_COUNT>
0

> <PUBCHEM_ISOTOPIC_ATOM_COUNT>
0

> <PUBCHEM_COMPONENT_COUNT>
1

> <PUBCHEM_CACTVS_TAUTO_COUNT>
4

> <PUBCHEM_CONFORMER_ID>
006272BB00000001

> <PUBCHEM_MMFF94_ENERGY>
45.3366

> <PUBCHEM_FEATURE_SELFOVERLAP>
61.015

> <PUBCHEM_SHAPE_FINGERPRINT>
11513181 2 18341059544767031093
1361 2 18267300031404500959
14117953 113 18266454485150229876
14251757 5 17399806994839042550
15420108 30 17544741787350853088
18681886 176 18050000301343224712
19930381 70 18337110180593401073
20775438 99 17906130072379790749
21860390 5 18191028017380924797
23559900 14 18339641243386436955
3380486 145 17906757820741884728

> <PUBCHEM_SHAPE_MULTIPOLES>
520.26
10.91
7.87
1.28
21.22
0.61
0.02
3.21
-1.69
-9.19
-3.44
-0.17
-0.24
0.74

> <PUBCHEM_SHAPE_SELFOVERLAP>
1022.804

> <PUBCHEM_SHAPE_VOLUME>
314

> <PUBCHEM_COORDINATE_TYPE>
2
5
10

$$$$
