220632
  -OEChem-10241303093D

 12 11  0     1  0  0  0  0  0999 V2000
   -3.1995   -0.2424   -0.1896 Br  0  0  0  0  0  0  0  0  0  0  0  0
    1.9072    0.7598   -0.5833 F   0  0  0  0  0  0  0  0  0  0  0  0
    1.3490   -1.3452   -0.5392 F   0  0  0  0  0  0  0  0  0  0  0  0
    1.2639   -0.1569    1.2904 F   0  0  0  0  0  0  0  0  0  0  0  0
   -0.6040    1.5718    0.1131 O   0  0  0  0  0  0  0  0  0  0  0  0
   -0.3906    0.2443   -0.3624 C   0  0  1  0  0  0  0  0  0  0  0  0
    1.0434   -0.1266   -0.0413 C   0  0  0  0  0  0  0  0  0  0  0  0
   -1.3695   -0.7049    0.3123 C   0  0  0  0  0  0  0  0  0  0  0  0
   -0.5357    0.2539   -1.4478 H   0  0  0  0  0  0  0  0  0  0  0  0
   -1.2178   -1.7435    0.0074 H   0  0  0  0  0  0  0  0  0  0  0  0
   -1.3415   -0.6264    1.4029 H   0  0  0  0  0  0  0  0  0  0  0  0
   -0.4591    1.5720    1.0749 H   0  0  0  0  0  0  0  0  0  0  0  0
  1  8  1  0  0  0  0
  2  7  1  0  0  0  0
  3  7  1  0  0  0  0
  4  7  1  0  0  0  0
  5  6  1  0  0  0  0
  5 12  1  0  0  0  0
  6  7  1  0  0  0  0
  6  8  1  0  0  0  0
  6  9  1  0  0  0  0
  8 10  1  0  0  0  0
  8 11  1  0  0  0  0
M  END
> <PUBCHEM_COMPOUND_CID>
220632

> <PUBCHEM_CONFORMER_RMSD>
0.4

> <PUBCHEM_CONFORMER_DIVERSEORDER>
1
5
6
4
2
3

> <PUBCHEM_MMFF94_PARTIAL_CHARGES>
9
1 -0.23
12 0.4
2 -0.34
3 -0.34
4 -0.34
5 -0.68
6 0.28
7 1.02
8 0.23

> <PUBCHEM_EFFECTIVE_ROTOR_COUNT>
2

> <PUBCHEM_PHARMACOPHORE_FEATURES>
3
1 1 hydrophobe
1 5 acceptor
1 5 donor

> <PUBCHEM_HEAVY_ATOM_COUNT>
8

> <PUBCHEM_ATOM_DEF_STEREO_COUNT>
0

> <PUBCHEM_ATOM_UDEF_STEREO_COUNT>
1

> <PUBCHEM_BOND_DEF_STEREO_COUNT>
0

> <PUBCHEM_BOND_UDEF_STEREO_COUNT>
0

> <PUBCHEM_ISOTOPIC_ATOM_COUNT>
0

> <PUBCHEM_COMPONENT_COUNT>
1

> <PUBCHEM_CACTVS_TAUTO_COUNT>
1

> <PUBCHEM_CONFORMER_ID>
00035DD800000001

> <PUBCHEM_MMFF94_ENERGY>
7.3615

> <PUBCHEM_FEATURE_SELFOVERLAP>
15.223

> <PUBCHEM_SHAPE_FINGERPRINT>
12932764 1 17203609298565782839
21040471 1 18270960257957211839
23552333 60 17821441352858913617
23552423 10 18262524667452405191
24536 1 18337663101418449644
29004967 10 18412546543682734051
5460574 1 10880002354361508471

> <PUBCHEM_SHAPE_MULTIPOLES>
142.89
3.51
1.15
0.84
2.71
0.17
-0.14
-0.33
0.28
-0.14
0.06
-0.2
-0.07
0.01

> <PUBCHEM_SHAPE_SELFOVERLAP>
257.072

> <PUBCHEM_SHAPE_VOLUME>
95.3

> <PUBCHEM_COORDINATE_TYPE>
2
5
10

$$$$
