6437875
  -OEChem-10241303063D

 28 27  0     1  0  0  0  0  0999 V2000
    3.6171   -0.6738   -0.8232 O   0  5  0  0  0  0  0  0  0  0  0  0
    2.1806   -1.8105    0.4011 O   0  0  0  0  0  0  0  0  0  0  0  0
   -2.1228   -1.4105   -1.5522 O   0  0  0  0  0  0  0  0  0  0  0  0
   -2.1306    2.0526    1.1473 O   0  0  0  0  0  0  0  0  0  0  0  0
    2.6613   -0.7568   -0.0392 N   0  3  0  0  0  0  0  0  0  0  0  0
   -2.7021    0.9586    0.4928 N   0  0  0  0  0  0  0  0  0  0  0  0
   -2.6701   -2.2138    0.5650 N   0  0  0  0  0  0  0  0  0  0  0  0
    2.0532    0.5112    0.4300 C   0  0  1  0  0  0  0  0  0  0  0  0
    0.6199    0.4980   -0.0786 C   0  0  0  0  0  0  0  0  0  0  0  0
    0.4582    0.9734   -1.5132 C   0  0  0  0  0  0  0  0  0  0  0  0
    2.2940    0.5841    1.9336 C   0  0  0  0  0  0  0  0  0  0  0  0
   -0.4041    0.0828    0.6947 C   0  0  0  0  0  0  0  0  0  0  0  0
    0.2079    2.4730   -1.6037 C   0  0  0  0  0  0  0  0  0  0  0  0
   -1.8350    0.0192    0.2886 C   0  0  0  0  0  0  0  0  0  0  0  0
   -2.2275   -1.2874   -0.3431 C   0  0  0  0  0  0  0  0  0  0  0  0
    2.6020    1.3372   -0.0393 H   0  0  0  0  0  0  0  0  0  0  0  0
    1.3466    0.7145   -2.1011 H   0  0  0  0  0  0  0  0  0  0  0  0
   -0.3716    0.4515   -2.0002 H   0  0  0  0  0  0  0  0  0  0  0  0
    3.3683    0.6221    2.1508 H   0  0  0  0  0  0  0  0  0  0  0  0
    1.8427    1.4916    2.3496 H   0  0  0  0  0  0  0  0  0  0  0  0
    1.8895   -0.2731    2.4833 H   0  0  0  0  0  0  0  0  0  0  0  0
   -0.2353   -0.2643    1.7095 H   0  0  0  0  0  0  0  0  0  0  0  0
    0.1267    2.7771   -2.6522 H   0  0  0  0  0  0  0  0  0  0  0  0
   -0.7217    2.7558   -1.1014 H   0  0  0  0  0  0  0  0  0  0  0  0
    1.0273    3.0409   -1.1510 H   0  0  0  0  0  0  0  0  0  0  0  0
   -2.7209   -2.0171    1.5596 H   0  0  0  0  0  0  0  0  0  0  0  0
   -2.9644   -3.1382    0.2678 H   0  0  0  0  0  0  0  0  0  0  0  0
   -2.8896    2.6555    1.2192 H   0  0  0  0  0  0  0  0  0  0  0  0
  1  5  1  0  0  0  0
  2  5  2  0  0  0  0
  3 15  2  0  0  0  0
  4  6  1  0  0  0  0
  4 28  1  0  0  0  0
  5  8  1  0  0  0  0
  6 14  2  0  0  0  0
  7 15  1  0  0  0  0
  7 26  1  0  0  0  0
  7 27  1  0  0  0  0
  8  9  1  0  0  0  0
  8 11  1  0  0  0  0
  8 16  1  0  0  0  0
  9 10  1  0  0  0  0
  9 12  2  0  0  0  0
 10 13  1  0  0  0  0
 10 17  1  0  0  0  0
 10 18  1  0  0  0  0
 11 19  1  0  0  0  0
 11 20  1  0  0  0  0
 11 21  1  0  0  0  0
 12 14  1  0  0  0  0
 12 22  1  0  0  0  0
 13 23  1  0  0  0  0
 13 24  1  0  0  0  0
 13 25  1  0  0  0  0
 14 15  1  0  0  0  0
M  CHG  2   1  -1   5   1
M  END
> <PUBCHEM_COMPOUND_CID>
6437875

> <PUBCHEM_CONFORMER_RMSD>
0.6

> <PUBCHEM_CONFORMER_DIVERSEORDER>
1
124
148
130
114
31
104
105
92
137
46
145
141
144
140
143
79
76
127
129
149
73
132
139
80
102
131
100
91
151
134
142
135
49
133
96
89
108
109
99
26
40
103
36
150
126
119
22
121
90
106
63
116
93
43
101
111
117
82
68
120
10
51
38
37
72
136
66
128
138
98
85
107
97
41
19
78
112
118
58
86
70
20
23
33
147
60
57
16
95
69
87
65
17
18
125
84
42
6
122
123
45
64
47
146
61
67
34
94
12
44
55
81
62
113
88
27
32
59
56
13
35
9
30
115
50
83
53
21
29
75
74
71
48
2
11
15
110
3
54
39
5
52
28
24
8
77
14
25
7
4

> <PUBCHEM_MMFF94_PARTIAL_CHARGES>
17
1 -0.52
10 0.14
12 -0.14
14 0.44
15 0.63
2 -0.52
22 0.15
26 0.37
27 0.37
28 0.4
3 -0.57
4 -0.34
5 0.8
6 -0.51
7 -0.8
8 0.38
9 -0.28

> <PUBCHEM_EFFECTIVE_ROTOR_COUNT>
5

> <PUBCHEM_PHARMACOPHORE_FEATURES>
8
1 1 acceptor
1 1 anion
1 13 hydrophobe
1 2 acceptor
1 3 acceptor
1 4 anion
1 6 acceptor
1 7 donor

> <PUBCHEM_HEAVY_ATOM_COUNT>
15

> <PUBCHEM_ATOM_DEF_STEREO_COUNT>
0

> <PUBCHEM_ATOM_UDEF_STEREO_COUNT>
1

> <PUBCHEM_BOND_DEF_STEREO_COUNT>
2

> <PUBCHEM_BOND_UDEF_STEREO_COUNT>
0

> <PUBCHEM_ISOTOPIC_ATOM_COUNT>
0

> <PUBCHEM_COMPONENT_COUNT>
1

> <PUBCHEM_CACTVS_TAUTO_COUNT>
8

> <PUBCHEM_CONFORMER_ID>
00623BF300000001

> <PUBCHEM_MMFF94_ENERGY>
31.6684

> <PUBCHEM_FEATURE_SELFOVERLAP>
40.676

> <PUBCHEM_SHAPE_FINGERPRINT>
12500047 106 18200873950776100920
12932764 1 17560524018046007002
16945 1 18269552749813556568
20361792 2 17821721745466792772
20671657 53 17605815122708574207
20711985 344 17823683175637701884
21524375 3 17913777107300300145
23402539 116 17458628887525182414
23419403 2 17041414960753303821
23532345 11 18413100684505159907
23552423 10 18190185765957146435
23598291 2 18263948646742874037
5845 1 14296890112048838788
6992083 37 18263377909939963265
7364860 26 18046636877608795421
81228 2 18042945610963595381

> <PUBCHEM_SHAPE_MULTIPOLES>
270.27
4.7
2.21
1.56
0.75
0.55
0.08
-2.19
0.35
-0.79
-0.53
0.27
0.53
-0.5

> <PUBCHEM_SHAPE_SELFOVERLAP>
527.823

> <PUBCHEM_SHAPE_VOLUME>
162.9

> <PUBCHEM_COORDINATE_TYPE>
2
5
10

$$$$
