3037751
  -OEChem-10241302563D

 35 36  0     0  0  0  0  0  0999 V2000
   -1.8032   -3.4539    0.0124 S   0  0  0  0  0  0  0  0  0  0  0  0
    3.1301   -2.2919    0.2368 O   0  0  0  0  0  0  0  0  0  0  0  0
   -1.3109   -0.7372    0.3137 N   0  0  0  0  0  0  0  0  0  0  0  0
    0.4345   -2.1376   -0.3259 N   0  0  0  0  0  0  0  0  0  0  0  0
    1.2654   -1.0402   -0.3329 N   0  0  0  0  0  0  0  0  0  0  0  0
   -2.5420   -0.0431    0.2081 C   0  0  0  0  0  0  0  0  0  0  0  0
   -4.9459    1.3130    0.0023 C   0  0  0  0  0  0  0  0  0  0  0  0
   -2.6156    1.2705    0.6379 C   0  0  0  0  0  0  0  0  0  0  0  0
   -3.6418   -0.6948   -0.3221 C   0  0  0  0  0  0  0  0  0  0  0  0
   -3.8272    1.9539    0.5342 C   0  0  0  0  0  0  0  0  0  0  0  0
   -4.8534   -0.0113   -0.4259 C   0  0  0  0  0  0  0  0  0  0  0  0
    3.4303    0.0171   -0.0528 C   0  0  0  0  0  0  0  0  0  0  0  0
   -6.2413    2.0438   -0.1091 C   0  0  0  0  0  0  0  0  0  0  0  0
   -0.9117   -2.0347    0.0094 C   0  0  0  0  0  0  0  0  0  0  0  0
    2.6210   -1.1909   -0.0384 C   0  0  0  0  0  0  0  0  0  0  0  0
    4.5811    0.0950    0.7318 C   0  0  0  0  0  0  0  0  0  0  0  0
    3.0563    1.0979   -0.8514 C   0  0  0  0  0  0  0  0  0  0  0  0
    5.3577    1.2536    0.7178 C   0  0  0  0  0  0  0  0  0  0  0  0
    3.8329    2.2565   -0.8652 C   0  0  0  0  0  0  0  0  0  0  0  0
    4.9836    2.3342   -0.0806 C   0  0  0  0  0  0  0  0  0  0  0  0
   -1.7504    1.7789    1.0541 H   0  0  0  0  0  0  0  0  0  0  0  0
   -3.6306   -1.6963   -0.7221 H   0  0  0  0  0  0  0  0  0  0  0  0
   -3.8871    2.9849    0.8729 H   0  0  0  0  0  0  0  0  0  0  0  0
   -5.7163   -0.5172   -0.8512 H   0  0  0  0  0  0  0  0  0  0  0  0
   -0.5524   -0.1400    0.6337 H   0  0  0  0  0  0  0  0  0  0  0  0
   -6.0786    3.1174   -0.2532 H   0  0  0  0  0  0  0  0  0  0  0  0
   -6.8216    1.6900   -0.9681 H   0  0  0  0  0  0  0  0  0  0  0  0
   -6.8342    1.8978    0.7992 H   0  0  0  0  0  0  0  0  0  0  0  0
    4.8875   -0.7343    1.3641 H   0  0  0  0  0  0  0  0  0  0  0  0
    2.1868    1.0702   -1.5012 H   0  0  0  0  0  0  0  0  0  0  0  0
    0.8541   -3.0275   -0.5743 H   0  0  0  0  0  0  0  0  0  0  0  0
    0.8414   -0.1609   -0.6048 H   0  0  0  0  0  0  0  0  0  0  0  0
    6.2533    1.3147    1.3292 H   0  0  0  0  0  0  0  0  0  0  0  0
    3.5462    3.0958   -1.4922 H   0  0  0  0  0  0  0  0  0  0  0  0
    5.5891    3.2358   -0.0926 H   0  0  0  0  0  0  0  0  0  0  0  0
  1 14  2  0  0  0  0
  2 15  2  0  0  0  0
  3  6  1  0  0  0  0
  3 14  1  0  0  0  0
  3 25  1  0  0  0  0
  4  5  1  0  0  0  0
  4 14  1  0  0  0  0
  4 31  1  0  0  0  0
  5 15  1  0  0  0  0
  5 32  1  0  0  0  0
  6  8  2  0  0  0  0
  6  9  1  0  0  0  0
  7 10  2  0  0  0  0
  7 11  1  0  0  0  0
  7 13  1  0  0  0  0
  8 10  1  0  0  0  0
  8 21  1  0  0  0  0
  9 11  2  0  0  0  0
  9 22  1  0  0  0  0
 10 23  1  0  0  0  0
 11 24  1  0  0  0  0
 12 15  1  0  0  0  0
 12 16  2  0  0  0  0
 12 17  1  0  0  0  0
 13 26  1  0  0  0  0
 13 27  1  0  0  0  0
 13 28  1  0  0  0  0
 16 18  1  0  0  0  0
 16 29  1  0  0  0  0
 17 19  2  0  0  0  0
 17 30  1  0  0  0  0
 18 20  2  0  0  0  0
 18 33  1  0  0  0  0
 19 20  1  0  0  0  0
 19 34  1  0  0  0  0
 20 35  1  0  0  0  0
M  END
> <PUBCHEM_COMPOUND_CID>
3037751

> <PUBCHEM_CONFORMER_RMSD>
0.8

> <PUBCHEM_CONFORMER_DIVERSEORDER>
1
10
43
31
14
33
13
35
5
40
42
44
7
26
18
22
41
45
27
11
32
20
37
8
3
15
21
38
19
28
36
24
39
34
4
30
25
17
29
16
23
6
2
9
12

> <PUBCHEM_MMFF94_PARTIAL_CHARGES>
32
1 -0.38
10 -0.15
11 -0.15
12 0.09
13 0.14
14 0.5
15 0.54
16 -0.15
17 -0.15
18 -0.15
19 -0.15
2 -0.57
20 -0.15
21 0.15
22 0.15
23 0.15
24 0.15
25 0.37
29 0.15
3 -0.55
30 0.15
31 0.37
32 0.37
33 0.15
34 0.15
35 0.15
4 -0.43
5 -0.43
6 0.12
7 -0.14
8 -0.15
9 -0.15

> <PUBCHEM_EFFECTIVE_ROTOR_COUNT>
6

> <PUBCHEM_PHARMACOPHORE_FEATURES>
7
1 1 acceptor
1 2 acceptor
1 3 donor
1 4 donor
1 5 donor
6 12 16 17 18 19 20 rings
6 6 7 8 9 10 11 rings

> <PUBCHEM_HEAVY_ATOM_COUNT>
20

> <PUBCHEM_ATOM_DEF_STEREO_COUNT>
0

> <PUBCHEM_ATOM_UDEF_STEREO_COUNT>
0

> <PUBCHEM_BOND_DEF_STEREO_COUNT>
0

> <PUBCHEM_BOND_UDEF_STEREO_COUNT>
0

> <PUBCHEM_ISOTOPIC_ATOM_COUNT>
0

> <PUBCHEM_COMPONENT_COUNT>
1

> <PUBCHEM_CACTVS_TAUTO_COUNT>
6

> <PUBCHEM_CONFORMER_ID>
002E5A3700000001

> <PUBCHEM_MMFF94_ENERGY>
69.0251

> <PUBCHEM_FEATURE_SELFOVERLAP>
37.1

> <PUBCHEM_SHAPE_FINGERPRINT>
10498660 4 18200883971288223944
12107183 9 18263351522188606322
12596602 18 17530964717327690265
12633257 1 15285368331256031435
13103583 49 11602817952687247959
1420 369 9079116648272402468
14251764 30 10735583739889731445
14251764 38 18340492140605430241
14251764 75 18265066884228197840
14767858 380 18271509993129694383
14790565 3 18198349451369256241
15188451 53 15430329091577489809
15196674 1 18411419505303518343
15322687 12 18343578559849448408
15342168 16 18408606946333704103
17810953 82 18408888399719936188
17834072 32 18410577296571275358
19784866 135 8286209331392031599
20157964 124 18409727322939061967
20715895 44 18410290268286604361
21033648 29 16732978674892205711
21298829 104 18411702050155405981
21315764 268 18189048694909146877
22950370 63 9295285058309847991
23227448 37 18340207500358823679
235170 7 15482677857360954096
23559900 14 18200876162932814766
245318 6 17896899826593374540
2838139 119 18343014536486083084
3472631 163 18343302548534861533
38570 142 17097520797783874844
465052 167 7997966894792726648
474 4 18336830801402689739
5104073 3 18259990344932712851
59682541 52 17274835610358083428
6328613 192 18261684770298966572
633830 44 18270398283267621127
67856867 119 18338792291523948851
7064713 232 18336543910562058780
7808743 9 18339358673055434842
960060 61 11671776091880991832
9981440 41 18409449219375269659

> <PUBCHEM_SHAPE_MULTIPOLES>
394.63
14.15
3.38
0.8
1.15
1.85
-0.01
-11.73
0.45
0.72
-0.11
-0.35
-0.19
-0.63

> <PUBCHEM_SHAPE_SELFOVERLAP>
824.109

> <PUBCHEM_SHAPE_VOLUME>
224.1

> <PUBCHEM_COORDINATE_TYPE>
2
5
10

$$$$
