56260
  -OEChem-10241303103D

 32 33  0     1  0  0  0  0  0999 V2000
   -2.7701   -2.1560   -0.9113 O   0  0  0  0  0  0  0  0  0  0  0  0
   -5.5283    1.4276   -0.0432 O   0  0  0  0  0  0  0  0  0  0  0  0
    0.6649   -0.6822    1.7750 O   0  0  0  0  0  0  0  0  0  0  0  0
   -0.5335   -0.7702   -0.2122 N   0  0  0  0  0  0  0  0  0  0  0  0
   -4.1094   -0.3340   -0.4862 N   0  0  0  0  0  0  0  0  0  0  0  0
   -1.7918   -0.3205    0.3213 C   0  0  1  0  0  0  0  0  0  0  0  0
   -1.9270    1.1900    0.2151 C   0  0  0  0  0  0  0  0  0  0  0  0
   -3.2794    1.6143    0.7579 C   0  0  0  0  0  0  0  0  0  0  0  0
   -2.9001   -1.0268   -0.4388 C   0  0  0  0  0  0  0  0  0  0  0  0
   -4.4083    0.9225    0.0316 C   0  0  0  0  0  0  0  0  0  0  0  0
    0.6066   -0.9157    0.5705 C   0  0  0  0  0  0  0  0  0  0  0  0
    1.7867   -1.4082   -0.2449 C   0  0  0  0  0  0  0  0  0  0  0  0
    2.9570   -0.4607   -0.2333 C   0  0  0  0  0  0  0  0  0  0  0  0
    3.0458    0.5271   -1.2040 C   0  0  0  0  0  0  0  0  0  0  0  0
    3.9298   -0.5883    0.7484 C   0  0  0  0  0  0  0  0  0  0  0  0
    4.1297    1.4051   -1.1933 C   0  0  0  0  0  0  0  0  0  0  0  0
    5.0136    0.2897    0.7591 C   0  0  0  0  0  0  0  0  0  0  0  0
    5.1135    1.2864   -0.2118 C   0  0  0  0  0  0  0  0  0  0  0  0
   -1.8650   -0.6312    1.3709 H   0  0  0  0  0  0  0  0  0  0  0  0
   -1.8298    1.5080   -0.8316 H   0  0  0  0  0  0  0  0  0  0  0  0
   -1.1277    1.6888    0.7757 H   0  0  0  0  0  0  0  0  0  0  0  0
   -3.4004    2.6963    0.6377 H   0  0  0  0  0  0  0  0  0  0  0  0
   -3.3646    1.3773    1.8243 H   0  0  0  0  0  0  0  0  0  0  0  0
   -0.4819   -0.9607   -1.2089 H   0  0  0  0  0  0  0  0  0  0  0  0
   -4.8706   -0.8070   -0.9657 H   0  0  0  0  0  0  0  0  0  0  0  0
    1.4981   -1.6173   -1.2823 H   0  0  0  0  0  0  0  0  0  0  0  0
    2.0849   -2.3799    0.1698 H   0  0  0  0  0  0  0  0  0  0  0  0
    2.2835    0.6289   -1.9712 H   0  0  0  0  0  0  0  0  0  0  0  0
    3.8606   -1.3598    1.5101 H   0  0  0  0  0  0  0  0  0  0  0  0
    4.2072    2.1815   -1.9487 H   0  0  0  0  0  0  0  0  0  0  0  0
    5.7795    0.1977    1.5237 H   0  0  0  0  0  0  0  0  0  0  0  0
    5.9572    1.9702   -0.2031 H   0  0  0  0  0  0  0  0  0  0  0  0
  1  9  2  0  0  0  0
  2 10  2  0  0  0  0
  3 11  2  0  0  0  0
  4  6  1  0  0  0  0
  4 11  1  0  0  0  0
  4 24  1  0  0  0  0
  5  9  1  0  0  0  0
  5 10  1  0  0  0  0
  5 25  1  0  0  0  0
  6  7  1  0  0  0  0
  6  9  1  0  0  0  0
  6 19  1  0  0  0  0
  7  8  1  0  0  0  0
  7 20  1  0  0  0  0
  7 21  1  0  0  0  0
  8 10  1  0  0  0  0
  8 22  1  0  0  0  0
  8 23  1  0  0  0  0
 11 12  1  0  0  0  0
 12 13  1  0  0  0  0
 12 26  1  0  0  0  0
 12 27  1  0  0  0  0
 13 14  2  0  0  0  0
 13 15  1  0  0  0  0
 14 16  1  0  0  0  0
 14 28  1  0  0  0  0
 15 17  2  0  0  0  0
 15 29  1  0  0  0  0
 16 18  2  0  0  0  0
 16 30  1  0  0  0  0
 17 18  1  0  0  0  0
 17 31  1  0  0  0  0
 18 32  1  0  0  0  0
M  END
> <PUBCHEM_COMPOUND_CID>
56260

> <PUBCHEM_CONFORMER_RMSD>
0.6

> <PUBCHEM_CONFORMER_DIVERSEORDER>
1
16
31
29
19
3
11
15
30
12
8
26
33
2
22
24
23
21
35
4
34
5
20
25
28
10
27
6
17
13
7
32
9
14
18

> <PUBCHEM_MMFF94_PARTIAL_CHARGES>
24
1 -0.57
10 0.57
11 0.57
12 0.2
13 -0.14
14 -0.15
15 -0.15
16 -0.15
17 -0.15
18 -0.15
2 -0.57
24 0.37
25 0.37
28 0.15
29 0.15
3 -0.57
30 0.15
31 0.15
32 0.15
4 -0.73
5 -0.49
6 0.36
8 0.06
9 0.57

> <PUBCHEM_EFFECTIVE_ROTOR_COUNT>
4.8

> <PUBCHEM_PHARMACOPHORE_FEATURES>
7
1 1 acceptor
1 2 acceptor
1 3 acceptor
1 4 donor
1 5 donor
6 13 14 15 16 17 18 rings
6 5 6 7 8 9 10 rings

> <PUBCHEM_HEAVY_ATOM_COUNT>
18

> <PUBCHEM_ATOM_DEF_STEREO_COUNT>
1

> <PUBCHEM_ATOM_UDEF_STEREO_COUNT>
0

> <PUBCHEM_BOND_DEF_STEREO_COUNT>
0

> <PUBCHEM_BOND_UDEF_STEREO_COUNT>
0

> <PUBCHEM_ISOTOPIC_ATOM_COUNT>
0

> <PUBCHEM_COMPONENT_COUNT>
1

> <PUBCHEM_CACTVS_TAUTO_COUNT>
6

> <PUBCHEM_CONFORMER_ID>
0000DBC400000001

> <PUBCHEM_MMFF94_ENERGY>
38.3022

> <PUBCHEM_FEATURE_SELFOVERLAP>
35.522

> <PUBCHEM_SHAPE_FINGERPRINT>
10014705 185 18408602548456088637
10498660 4 18131073731583042696
12173636 292 18129660786332492005
12236239 1 18261107474041400723
12390115 104 17345487985792022233
12616971 3 18040147418421573502
12633257 1 16878500254625993236
12788726 201 17537451986799353402
13533116 47 16515960350787495632
13583140 156 13479401833875500126
13675066 3 14201111328030791842
14251764 38 18050003591320405912
14341114 176 11458430124113442174
15188451 53 13840557327509030721
15342168 16 17531543060496271076
17959699 21 18333731286698326861
1813 80 12103574108134682840
18186145 218 17458347437991494218
193927 3 9799407862369137716
20300324 65 18342455980210287559
204376 136 17095248033401269802
20645477 56 18272089383663841219
20645477 70 14620521082175741532
20871999 31 18201993370115598119
22079108 93 17458355143215200979
22950370 63 9943535124114637458
23402539 116 18411130368585323118
23402655 69 18411420622401197398
235170 7 16630538323136005532
23557571 272 17917153891659660390
23559900 14 17988079976959693782
23596394 208 15913055278937260172
2838139 119 17983012551670011420
2871803 45 13973971982718917084
3472631 163 18412830187560277621
34797466 226 17417818395234687164
351380 180 18113054939548844048
3545911 37 18341897363873547798
42 15 8358259254417557579
4340502 62 16878235169217929233
46194498 28 15625927759845260376
465052 167 8790879701053083448
474 4 17967537891190033076
5104073 3 17168705370762036768
542803 24 18259984877127802550
59755656 520 17458346342569261938
633830 44 18040720272865361734
94968 8 11600004332686378956
960060 61 14189576329974018424
9971528 1 18187645774444587214

> <PUBCHEM_SHAPE_MULTIPOLES>
342.86
12.05
1.73
1.1
0.33
0.01
0.1
-5.38
-0.62
0.82
-0.21
-0.64
0.04
-1.23

> <PUBCHEM_SHAPE_SELFOVERLAP>
720.828

> <PUBCHEM_SHAPE_VOLUME>
190.4

> <PUBCHEM_COORDINATE_TYPE>
2
5
10

$$$$
