2760804
  -OEChem-10241302553D

 19 19  0     0  0  0  0  0  0999 V2000
   -4.7582    1.4267    0.2706 Cl  0  0  0  0  0  0  0  0  0  0  0  0
    2.0341    0.1092    1.5066 F   0  0  0  0  0  0  0  0  0  0  0  0
    4.6692    0.1559    1.1654 F   0  0  0  0  0  0  0  0  0  0  0  0
    4.3871   -0.0395   -1.1445 F   0  0  0  0  0  0  0  0  0  0  0  0
    1.6774   -0.0641   -0.8445 O   0  0  0  0  0  0  0  0  0  0  0  0
   -4.4005   -1.1705    0.4205 O   0  0  0  0  0  0  0  0  0  0  0  0
    0.3411   -0.0680   -0.5867 C   0  0  0  0  0  0  0  0  0  0  0  0
   -2.3981   -0.0759   -0.0578 C   0  0  0  0  0  0  0  0  0  0  0  0
   -0.3212   -1.2737   -0.3564 C   0  0  0  0  0  0  0  0  0  0  0  0
   -0.3661    1.1338   -0.5529 C   0  0  0  0  0  0  0  0  0  0  0  0
   -1.6907   -1.2777   -0.0918 C   0  0  0  0  0  0  0  0  0  0  0  0
   -1.7357    1.1298   -0.2884 C   0  0  0  0  0  0  0  0  0  0  0  0
   -3.8261   -0.0803    0.2173 C   0  0  0  0  0  0  0  0  0  0  0  0
    2.5311    0.0413    0.2497 C   0  0  0  0  0  0  0  0  0  0  0  0
    3.8567    0.0530    0.0928 C   0  0  0  0  0  0  0  0  0  0  0  0
    0.2233   -2.2138   -0.3824 H   0  0  0  0  0  0  0  0  0  0  0  0
    0.1435    2.0766   -0.7329 H   0  0  0  0  0  0  0  0  0  0  0  0
   -2.1811   -2.2315    0.0837 H   0  0  0  0  0  0  0  0  0  0  0  0
   -2.2417    2.0896   -0.2731 H   0  0  0  0  0  0  0  0  0  0  0  0
  1 13  1  0  0  0  0
  2 14  1  0  0  0  0
  3 15  1  0  0  0  0
  4 15  1  0  0  0  0
  5  7  1  0  0  0  0
  5 14  1  0  0  0  0
  6 13  2  0  0  0  0
  7  9  2  0  0  0  0
  7 10  1  0  0  0  0
  8 11  2  0  0  0  0
  8 12  1  0  0  0  0
  8 13  1  0  0  0  0
  9 11  1  0  0  0  0
  9 16  1  0  0  0  0
 10 12  2  0  0  0  0
 10 17  1  0  0  0  0
 11 18  1  0  0  0  0
 12 19  1  0  0  0  0
 14 15  2  0  0  0  0
M  END
> <PUBCHEM_COMPOUND_CID>
2760804

> <PUBCHEM_CONFORMER_RMSD>
0.6

> <PUBCHEM_CONFORMER_DIVERSEORDER>
2
40
22
5
31
39
18
24
32
21
17
37
44
15
23
11
4
38
41
1
43
20
3
16
42
12
6
19
30
13
14
29
36
34
35
10
7
33
8
9
26
28
25
27

> <PUBCHEM_MMFF94_PARTIAL_CHARGES>
19
1 -0.21
10 -0.15
11 -0.15
12 -0.15
13 0.69
14 0.23
15 0.3
16 0.15
17 0.15
18 0.15
19 0.15
2 -0.15
3 -0.15
4 -0.15
5 -0.16
6 -0.57
7 0.08
8 0.09
9 -0.15

> <PUBCHEM_EFFECTIVE_ROTOR_COUNT>
3

> <PUBCHEM_PHARMACOPHORE_FEATURES>
2
1 5 acceptor
6 7 8 9 10 11 12 rings

> <PUBCHEM_HEAVY_ATOM_COUNT>
15

> <PUBCHEM_ATOM_DEF_STEREO_COUNT>
0

> <PUBCHEM_ATOM_UDEF_STEREO_COUNT>
0

> <PUBCHEM_BOND_DEF_STEREO_COUNT>
0

> <PUBCHEM_BOND_UDEF_STEREO_COUNT>
0

> <PUBCHEM_ISOTOPIC_ATOM_COUNT>
0

> <PUBCHEM_COMPONENT_COUNT>
1

> <PUBCHEM_CACTVS_TAUTO_COUNT>
1

> <PUBCHEM_CONFORMER_ID>
002A206400000002

> <PUBCHEM_MMFF94_ENERGY>
35.1645

> <PUBCHEM_FEATURE_SELFOVERLAP>
10.148

> <PUBCHEM_SHAPE_FINGERPRINT>
11132069 177 18410580557005367109
11401426 45 18411697682452221181
11471102 20 16271926004487673160
12119455 92 17060336305883626797
12236239 1 17748831821664676468
12251169 10 18411697716131522812
13214271 11 18342737412674980581
13581323 91 18334293171483631862
13675066 3 18272936033165519007
13760787 5 16877663473940972423
14252887 29 14201399352537164944
14943859 89 16271924917423149471
15209294 21 18129953273800638993
15219456 202 18059861610220381431
15375462 189 17385435523075776312
17804303 29 18411703213958836421
18186145 218 16056879134843887111
187816 3 10519983772904886789
19422 9 17603863360920531082
200 152 15357691989801437404
20510252 161 18342176618215321777
20645477 56 17846489357648365416
20645477 70 14562796751412858178
21119208 17 12175625087648693714
22854114 59 17846778516089310610
23402539 116 18201430381317177325
23559900 14 18270133318134400182
2748010 2 18120663427027135503
42 15 18187080633435424082
43471831 8 18187923928557581515
449060 50 17346601893379540215
69090 78 17561078124809732135

> <PUBCHEM_SHAPE_MULTIPOLES>
277
9.26
1.25
0.95
2.44
0.06
-0.13
-1.28
-1.82
-1.39
0.05
0.8
-0.05
0.13

> <PUBCHEM_SHAPE_SELFOVERLAP>
572.401

> <PUBCHEM_SHAPE_VOLUME>
158.2

> <PUBCHEM_COORDINATE_TYPE>
2
5
10

$$$$
