22875828
  -OEChem-10241303053D

 55 58  0     1  0  0  0  0  0999 V2000
    3.6204   -2.9468   -0.1521 F   0  0  0  0  0  0  0  0  0  0  0  0
    0.1011    1.9669   -1.7219 O   0  0  0  0  0  0  0  0  0  0  0  0
   -5.0998   -0.2819   -0.8302 O   0  0  0  0  0  0  0  0  0  0  0  0
   -5.9659    1.8465    0.2469 O   0  0  0  0  0  0  0  0  0  0  0  0
   -4.1166    1.9442    1.6009 O   0  0  0  0  0  0  0  0  0  0  0  0
    6.0611    0.8383    1.7862 O   0  0  0  0  0  0  0  0  0  0  0  0
   -1.8467    0.0163   -0.2991 C   0  0  1  0  0  0  0  0  0  0  0  0
   -0.8484   -1.0828    0.1152 C   0  0  2  0  0  0  0  0  0  0  0  0
    0.5367   -0.9207   -0.5258 C   0  0  1  0  0  0  0  0  0  0  0  0
    1.1385    0.4576   -0.0759 C   0  0  2  0  0  0  0  0  0  0  0  0
   -3.0860   -0.4703    0.4912 C   0  0  2  0  0  0  0  0  0  0  0  0
   -1.2809    1.3668    0.1754 C   0  0  0  0  0  0  0  0  0  0  0  0
   -1.6268   -2.3773   -0.1060 C   0  0  0  0  0  0  0  0  0  0  0  0
   -3.0772   -2.0114    0.2945 C   0  0  1  0  0  0  0  0  0  0  0  0
    0.1498    1.6379   -0.3406 C   0  0  2  0  0  0  0  0  0  0  0  0
    2.6178    0.6613   -0.5952 C   0  0  1  0  0  0  0  0  0  0  0  0
    1.4561   -2.0846   -0.1235 C   0  0  0  0  0  0  0  0  0  0  0  0
   -2.1488    0.0479   -1.8202 C   0  0  0  0  0  0  0  0  0  0  0  0
    2.8816   -1.8996   -0.6230 C   0  0  1  0  0  0  0  0  0  0  0  0
    3.4282   -0.5698   -0.1671 C   0  0  0  0  0  0  0  0  0  0  0  0
   -3.5249   -2.7408    1.5576 C   0  0  0  0  0  0  0  0  0  0  0  0
   -4.3737    0.1566    0.0493 C   0  0  0  0  0  0  0  0  0  0  0  0
    2.7316    0.8015   -2.1301 C   0  0  0  0  0  0  0  0  0  0  0  0
    3.2027    1.9380   -0.0089 C   0  0  0  0  0  0  0  0  0  0  0  0
    4.5290   -0.5036    0.5985 C   0  0  0  0  0  0  0  0  0  0  0  0
    4.2969    2.0076    0.7552 C   0  0  0  0  0  0  0  0  0  0  0  0
   -4.8013    1.4159    0.7483 C   0  0  0  0  0  0  0  0  0  0  0  0
    5.0457    0.7862    1.1004 C   0  0  0  0  0  0  0  0  0  0  0  0
   -0.6925   -1.0121    1.2055 H   0  0  0  0  0  0  0  0  0  0  0  0
    0.4411   -0.9407   -1.6162 H   0  0  0  0  0  0  0  0  0  0  0  0
    1.2115    0.4019    1.0241 H   0  0  0  0  0  0  0  0  0  0  0  0
   -2.9547   -0.2631    1.5620 H   0  0  0  0  0  0  0  0  0  0  0  0
   -1.2547    1.3872    1.2727 H   0  0  0  0  0  0  0  0  0  0  0  0
   -1.9468    2.1782   -0.1421 H   0  0  0  0  0  0  0  0  0  0  0  0
   -1.5896   -2.6816   -1.1584 H   0  0  0  0  0  0  0  0  0  0  0  0
   -1.2227   -3.2031    0.4887 H   0  0  0  0  0  0  0  0  0  0  0  0
   -3.7459   -2.3227   -0.5171 H   0  0  0  0  0  0  0  0  0  0  0  0
    0.5140    2.5309    0.1793 H   0  0  0  0  0  0  0  0  0  0  0  0
    1.0685   -3.0316   -0.5181 H   0  0  0  0  0  0  0  0  0  0  0  0
    1.4679   -2.2007    0.9687 H   0  0  0  0  0  0  0  0  0  0  0  0
   -2.6902   -0.8410   -2.1599 H   0  0  0  0  0  0  0  0  0  0  0  0
   -2.7664    0.9170   -2.0745 H   0  0  0  0  0  0  0  0  0  0  0  0
   -1.2484    0.1051   -2.4346 H   0  0  0  0  0  0  0  0  0  0  0  0
    2.9157   -1.9656   -1.7151 H   0  0  0  0  0  0  0  0  0  0  0  0
   -2.8649   -2.5198    2.4033 H   0  0  0  0  0  0  0  0  0  0  0  0
   -4.5430   -2.4477    1.8341 H   0  0  0  0  0  0  0  0  0  0  0  0
   -3.5169   -3.8243    1.3995 H   0  0  0  0  0  0  0  0  0  0  0  0
    2.1521    0.0441   -2.6664 H   0  0  0  0  0  0  0  0  0  0  0  0
    2.3957    1.7817   -2.4858 H   0  0  0  0  0  0  0  0  0  0  0  0
    3.7743    0.7003   -2.4594 H   0  0  0  0  0  0  0  0  0  0  0  0
    2.7082    2.8761   -0.2518 H   0  0  0  0  0  0  0  0  0  0  0  0
   -0.4861    2.7350   -1.8237 H   0  0  0  0  0  0  0  0  0  0  0  0
    5.0772   -1.3918    0.8940 H   0  0  0  0  0  0  0  0  0  0  0  0
    4.6655    2.9562    1.1277 H   0  0  0  0  0  0  0  0  0  0  0  0
   -6.2640    2.6826    0.6643 H   0  0  0  0  0  0  0  0  0  0  0  0
  1 19  1  0  0  0  0
  2 15  1  0  0  0  0
  2 52  1  0  0  0  0
  3 22  2  0  0  0  0
  4 27  1  0  0  0  0
  4 55  1  0  0  0  0
  5 27  2  0  0  0  0
  6 28  2  0  0  0  0
  7  8  1  0  0  0  0
  7 11  1  0  0  0  0
  7 12  1  0  0  0  0
  7 18  1  0  0  0  0
  8  9  1  0  0  0  0
  8 13  1  0  0  0  0
  8 29  1  0  0  0  0
  9 10  1  0  0  0  0
  9 17  1  0  0  0  0
  9 30  1  0  0  0  0
 10 15  1  0  0  0  0
 10 16  1  0  0  0  0
 10 31  1  0  0  0  0
 11 14  1  0  0  0  0
 11 22  1  0  0  0  0
 11 32  1  0  0  0  0
 12 15  1  0  0  0  0
 12 33  1  0  0  0  0
 12 34  1  0  0  0  0
 13 14  1  0  0  0  0
 13 35  1  0  0  0  0
 13 36  1  0  0  0  0
 14 21  1  0  0  0  0
 14 37  1  0  0  0  0
 15 38  1  0  0  0  0
 16 20  1  0  0  0  0
 16 23  1  0  0  0  0
 16 24  1  0  0  0  0
 17 19  1  0  0  0  0
 17 39  1  0  0  0  0
 17 40  1  0  0  0  0
 18 41  1  0  0  0  0
 18 42  1  0  0  0  0
 18 43  1  0  0  0  0
 19 20  1  0  0  0  0
 19 44  1  0  0  0  0
 20 25  2  0  0  0  0
 21 45  1  0  0  0  0
 21 46  1  0  0  0  0
 21 47  1  0  0  0  0
 22 27  1  0  0  0  0
 23 48  1  0  0  0  0
 23 49  1  0  0  0  0
 23 50  1  0  0  0  0
 24 26  2  0  0  0  0
 24 51  1  0  0  0  0
 25 28  1  0  0  0  0
 25 53  1  0  0  0  0
 26 28  1  0  0  0  0
 26 54  1  0  0  0  0
M  END
> <PUBCHEM_COMPOUND_CID>
22875828

> <PUBCHEM_CONFORMER_RMSD>
0.8

> <PUBCHEM_CONFORMER_DIVERSEORDER>
1

> <PUBCHEM_MMFF94_PARTIAL_CHARGES>
22
1 -0.34
11 0.06
15 0.28
16 0.28
19 0.48
2 -0.68
20 -0.28
22 0.51
24 -0.29
25 -0.14
26 -0.14
27 0.72
28 0.54
3 -0.57
4 -0.65
5 -0.57
51 0.15
52 0.4
53 0.15
54 0.15
55 0.5
6 -0.57

> <PUBCHEM_EFFECTIVE_ROTOR_COUNT>
3.4

> <PUBCHEM_PHARMACOPHORE_FEATURES>
11
1 2 acceptor
1 2 donor
1 3 acceptor
1 4 acceptor
1 5 acceptor
1 6 acceptor
3 4 5 27 anion
5 7 8 11 13 14 rings
6 16 20 24 25 26 28 rings
6 7 8 9 10 12 15 rings
6 9 10 16 17 19 20 rings

> <PUBCHEM_HEAVY_ATOM_COUNT>
28

> <PUBCHEM_ATOM_DEF_STEREO_COUNT>
9

> <PUBCHEM_ATOM_UDEF_STEREO_COUNT>
0

> <PUBCHEM_BOND_DEF_STEREO_COUNT>
0

> <PUBCHEM_BOND_UDEF_STEREO_COUNT>
0

> <PUBCHEM_ISOTOPIC_ATOM_COUNT>
0

> <PUBCHEM_COMPONENT_COUNT>
1

> <PUBCHEM_CACTVS_TAUTO_COUNT>
2

> <PUBCHEM_CONFORMER_ID>
015D0EB400000001

> <PUBCHEM_MMFF94_ENERGY>
90.9199

> <PUBCHEM_FEATURE_SELFOVERLAP>
55.992

> <PUBCHEM_SHAPE_FINGERPRINT>
10906281 52 18114475543200519028
11405975 8 18186804703029293251
11961588 58 13326562000080534288
12035758 1 18113625564962043561
12107183 9 17624987036368472785
12236239 1 17704065188174934935
12403814 3 17530682130497378941
12422481 6 18260541212926689520
12616971 3 17022904579082415028
12633257 1 17676205805383968262
12788726 201 17131840815408143488
12892183 10 18342745160147220203
13140716 1 18408325458156236258
13224815 77 18334583485534816118
13583140 156 17703226338133530219
14178342 30 18336831999513831994
14223421 5 18410288087023252430
14739800 52 17489294275007699648
15163728 17 15696893449285616809
15196674 1 18410295843085472294
15840311 113 18056768637711520377
17349148 13 18334564767819374940
17980427 23 18115302418820544108
1813 80 16950569878102232052
19141452 34 18333169483648463895
20511986 3 18201141183941821349
20691752 17 17240483632320960970
20715895 44 18338515227647319753
21033648 144 18410005516624107943
21033648 29 17988347274486010210
21304253 335 18411424981608555589
21421861 104 17968366845964821018
21452121 103 18342736300041255778
21756936 100 17627781239851636352
21859007 373 17605822621864418205
22182313 1 17969210140775053308
23503953 91 18187369839089477933
23559900 14 18336277747233741110
335352 9 18337958882926260726
34797466 226 16702305642009426789
34934 24 18343016700854155759
350125 39 18410578349661137404
3633792 109 18338785716593514229
3680242 22 18187642453780883034
392239 28 17915741083953578248
4340502 62 18343866606210095209
460360 51 18337409196079470315
5104073 3 18409735045164095547
59755656 215 18412266108605151862
653340 110 18195807358156822945
7064713 232 18411416250108769608
9709674 26 18412831252474796415
9981440 41 18412829097071374051

> <PUBCHEM_SHAPE_MULTIPOLES>
539.61
11.67
2.81
1.41
0.79
1.14
-0.23
-3.48
4.7
0.69
0.42
-0.41
-0.35
0.46

> <PUBCHEM_SHAPE_SELFOVERLAP>
1170.037

> <PUBCHEM_SHAPE_VOLUME>
295.8

> <PUBCHEM_COORDINATE_TYPE>
2
5
10

$$$$
