67720
  -OEChem-10241303003D

  8  7  0     0  0  0  0  0  0999 V2000
   -2.3626   -0.8188    0.0001 I   0  0  0  0  0  0  0  0  0  0  0  0
    2.3623    0.8187   -0.0004 I   0  0  0  0  0  0  0  0  0  0  0  0
   -0.6977    1.2037    1.0893 F   0  0  0  0  0  0  0  0  0  0  0  0
   -0.6975    1.2031   -1.0897 F   0  0  0  0  0  0  0  0  0  0  0  0
    0.6975   -1.2037   -1.0893 F   0  0  0  0  0  0  0  0  0  0  0  0
    0.6980   -1.2030    1.0898 F   0  0  0  0  0  0  0  0  0  0  0  0
   -0.6484    0.3935    0.0001 C   0  0  0  0  0  0  0  0  0  0  0  0
    0.6484   -0.3936    0.0002 C   0  0  0  0  0  0  0  0  0  0  0  0
  1  7  1  0  0  0  0
  2  8  1  0  0  0  0
  3  7  1  0  0  0  0
  4  7  1  0  0  0  0
  5  8  1  0  0  0  0
  6  8  1  0  0  0  0
  7  8  1  0  0  0  0
M  END
> <PUBCHEM_COMPOUND_CID>
67720

> <PUBCHEM_CONFORMER_RMSD>
0.4

> <PUBCHEM_CONFORMER_DIVERSEORDER>
1
2
3

> <PUBCHEM_MMFF94_PARTIAL_CHARGES>
8
1 -0.19
2 -0.19
3 -0.34
4 -0.34
5 -0.34
6 -0.34
7 0.87
8 0.87

> <PUBCHEM_EFFECTIVE_ROTOR_COUNT>
1

> <PUBCHEM_PHARMACOPHORE_FEATURES>
2
1 1 hydrophobe
1 2 hydrophobe

> <PUBCHEM_HEAVY_ATOM_COUNT>
8

> <PUBCHEM_ATOM_DEF_STEREO_COUNT>
0

> <PUBCHEM_ATOM_UDEF_STEREO_COUNT>
0

> <PUBCHEM_BOND_DEF_STEREO_COUNT>
0

> <PUBCHEM_BOND_UDEF_STEREO_COUNT>
0

> <PUBCHEM_ISOTOPIC_ATOM_COUNT>
0

> <PUBCHEM_COMPONENT_COUNT>
1

> <PUBCHEM_CACTVS_TAUTO_COUNT>
1

> <PUBCHEM_CONFORMER_ID>
0001088800000001

> <PUBCHEM_MMFF94_ENERGY>
2.4005

> <PUBCHEM_FEATURE_SELFOVERLAP>
10.149

> <PUBCHEM_SHAPE_FINGERPRINT>
137420 1 11043084199299320682
16714656 1 17987235710531251870
24536 1 17842828932672395624
29004967 10 17988370367929268955
5084963 1 18335139804248649300
68250623 7 17200828560011638602

> <PUBCHEM_SHAPE_MULTIPOLES>
159.41
3.31
1.35
1.05
0
0
0
0
0
0
0
0
0
0

> <PUBCHEM_SHAPE_SELFOVERLAP>
269.03

> <PUBCHEM_SHAPE_VOLUME>
112.5

> <PUBCHEM_COORDINATE_TYPE>
2
5
10

$$$$
