449193
  -OEChem-10241303003D

 40 42  0     0  0  0  0  0  0999 V2000
    3.2401    2.1770    1.6154 Cl  0  0  0  0  0  0  0  0  0  0  0  0
    4.0084   -1.9308   -1.9125 Cl  0  0  0  0  0  0  0  0  0  0  0  0
   -5.9565   -1.4432    0.4520 F   0  0  0  0  0  0  0  0  0  0  0  0
   -4.8484   -3.2223   -0.1277 F   0  0  0  0  0  0  0  0  0  0  0  0
   -2.4647    1.0995   -1.0814 O   0  0  0  0  0  0  0  0  0  0  0  0
   -3.9173   -1.1829   -0.4446 O   0  0  0  0  0  0  0  0  0  0  0  0
    2.0367   -1.6478    1.5656 O   0  0  0  0  0  0  0  0  0  0  0  0
    2.3308   -0.0989   -0.1722 N   0  0  0  0  0  0  0  0  0  0  0  0
    6.4659    0.6100   -0.0970 N   0  0  0  0  0  0  0  0  0  0  0  0
   -3.6261    3.1437   -0.6984 C   0  0  0  0  0  0  0  0  0  0  0  0
   -4.6748    3.3407    0.3522 C   0  0  0  0  0  0  0  0  0  0  0  0
   -3.7970    4.4864   -0.0583 C   0  0  0  0  0  0  0  0  0  0  0  0
   -2.4179    2.3354   -0.3711 C   0  0  0  0  0  0  0  0  0  0  0  0
   -1.8532    0.0289   -0.5020 C   0  0  0  0  0  0  0  0  0  0  0  0
   -2.5824   -1.1163   -0.1819 C   0  0  0  0  0  0  0  0  0  0  0  0
   -0.4865    0.0845   -0.2289 C   0  0  0  0  0  0  0  0  0  0  0  0
    0.1512   -1.0051    0.3643 C   0  0  0  0  0  0  0  0  0  0  0  0
   -1.9449   -2.2057    0.4115 C   0  0  0  0  0  0  0  0  0  0  0  0
   -0.5780   -2.1503    0.6845 C   0  0  0  0  0  0  0  0  0  0  0  0
    1.5760   -0.9470    0.6500 C   0  0  0  0  0  0  0  0  0  0  0  0
    3.7268    0.1407   -0.1469 C   0  0  0  0  0  0  0  0  0  0  0  0
   -4.7130   -1.9880    0.4164 C   0  0  0  0  0  0  0  0  0  0  0  0
    4.2300    1.1590    0.6413 C   0  0  0  0  0  0  0  0  0  0  0  0
    4.5679   -0.6472   -0.9107 C   0  0  0  0  0  0  0  0  0  0  0  0
    5.6021    1.3525    0.6314 C   0  0  0  0  0  0  0  0  0  0  0  0
    5.9249   -0.3731   -0.8509 C   0  0  0  0  0  0  0  0  0  0  0  0
   -3.9320    3.0557   -1.7336 H   0  0  0  0  0  0  0  0  0  0  0  0
   -5.7097    3.3584    0.0326 H   0  0  0  0  0  0  0  0  0  0  0  0
   -4.5209    2.9162    1.3366 H   0  0  0  0  0  0  0  0  0  0  0  0
   -3.0485    4.8252    0.6474 H   0  0  0  0  0  0  0  0  0  0  0  0
   -4.2435    5.2758   -0.6506 H   0  0  0  0  0  0  0  0  0  0  0  0
   -1.5252    2.8805   -0.6993 H   0  0  0  0  0  0  0  0  0  0  0  0
   -2.3357    2.1655    0.7105 H   0  0  0  0  0  0  0  0  0  0  0  0
    0.0538    0.9962   -0.4691 H   0  0  0  0  0  0  0  0  0  0  0  0
   -2.4684   -3.1267    0.6501 H   0  0  0  0  0  0  0  0  0  0  0  0
   -0.0987   -3.0148    1.1368 H   0  0  0  0  0  0  0  0  0  0  0  0
    1.8974    0.2096   -1.0396 H   0  0  0  0  0  0  0  0  0  0  0  0
   -4.3486   -2.0539    1.4476 H   0  0  0  0  0  0  0  0  0  0  0  0
    6.0707    2.1323    1.2245 H   0  0  0  0  0  0  0  0  0  0  0  0
    6.6469   -0.9490   -1.4222 H   0  0  0  0  0  0  0  0  0  0  0  0
  1 23  1  0  0  0  0
  2 24  1  0  0  0  0
  3 22  1  0  0  0  0
  4 22  1  0  0  0  0
  5 13  1  0  0  0  0
  5 14  1  0  0  0  0
  6 15  1  0  0  0  0
  6 22  1  0  0  0  0
  7 20  2  0  0  0  0
  8 20  1  0  0  0  0
  8 21  1  0  0  0  0
  8 37  1  0  0  0  0
  9 25  2  0  0  0  0
  9 26  1  0  0  0  0
 10 11  1  0  0  0  0
 10 12  1  0  0  0  0
 10 13  1  0  0  0  0
 10 27  1  0  0  0  0
 11 12  1  0  0  0  0
 11 28  1  0  0  0  0
 11 29  1  0  0  0  0
 12 30  1  0  0  0  0
 12 31  1  0  0  0  0
 13 32  1  0  0  0  0
 13 33  1  0  0  0  0
 14 15  2  0  0  0  0
 14 16  1  0  0  0  0
 15 18  1  0  0  0  0
 16 17  2  0  0  0  0
 16 34  1  0  0  0  0
 17 19  1  0  0  0  0
 17 20  1  0  0  0  0
 18 19  2  0  0  0  0
 18 35  1  0  0  0  0
 19 36  1  0  0  0  0
 21 23  2  0  0  0  0
 21 24  1  0  0  0  0
 22 38  1  0  0  0  0
 23 25  1  0  0  0  0
 24 26  2  0  0  0  0
 25 39  1  0  0  0  0
 26 40  1  0  0  0  0
M  END
> <PUBCHEM_COMPOUND_CID>
449193

> <PUBCHEM_CONFORMER_RMSD>
1

> <PUBCHEM_CONFORMER_DIVERSEORDER>
2
10
30
35
16
34
23
11
37
29
20
8
12
31
21
26
36
7
32
28
9
3
27
18
1
4
39
13
5
6
15
25
17
24
33
38
19
22
14

> <PUBCHEM_MMFF94_PARTIAL_CHARGES>
37
1 -0.18
10 -0.19
11 -0.2
12 -0.2
13 0.38
14 0.08
15 0.08
16 -0.15
17 0.09
18 -0.15
19 -0.15
2 -0.18
20 0.54
21 0.12
22 0.96
23 0.18
24 0.18
25 0.16
26 0.16
27 0.1
28 0.1
29 0.1
3 -0.34
30 0.1
31 0.1
34 0.15
35 0.15
36 0.15
37 0.37
39 0.15
4 -0.34
40 0.15
5 -0.36
6 -0.36
7 -0.57
8 -0.55
9 -0.62

> <PUBCHEM_EFFECTIVE_ROTOR_COUNT>
8.6

> <PUBCHEM_PHARMACOPHORE_FEATURES>
7
1 5 acceptor
1 6 acceptor
1 7 acceptor
1 8 donor
1 9 acceptor
6 14 15 16 17 18 19 rings
6 9 21 23 24 25 26 rings

> <PUBCHEM_HEAVY_ATOM_COUNT>
26

> <PUBCHEM_ATOM_DEF_STEREO_COUNT>
0

> <PUBCHEM_ATOM_UDEF_STEREO_COUNT>
0

> <PUBCHEM_BOND_DEF_STEREO_COUNT>
0

> <PUBCHEM_BOND_UDEF_STEREO_COUNT>
0

> <PUBCHEM_ISOTOPIC_ATOM_COUNT>
0

> <PUBCHEM_COMPONENT_COUNT>
1

> <PUBCHEM_CACTVS_TAUTO_COUNT>
3

> <PUBCHEM_CONFORMER_ID>
0006DAA900000002

> <PUBCHEM_MMFF94_ENERGY>
107.5406

> <PUBCHEM_FEATURE_SELFOVERLAP>
35.527

> <PUBCHEM_SHAPE_FINGERPRINT>
10050765 1 18265051344941374114
10411042 1 18121220042263062471
10670039 82 18187080650947570348
12107183 9 17901090933485724394
12236239 1 16153696666062461050
12390115 104 18338241457720417417
12403259 415 18202277035567723768
12788726 201 18117857687653269813
12916748 109 18334294305698084218
13073987 5 18334851706754225826
13140716 1 17828204625059542491
13383665 225 18191046632317955228
13540713 5 18042669620871209531
13944108 23 17188972315740496272
14251764 38 18336828701596770444
14790565 3 17762340215028284285
14955137 171 17974578189214277579
15131766 46 16054331721090121977
17844677 252 18409735088430083932
18608769 82 18411981390200450761
19377110 9 17603865581033670609
20645477 70 17632589245143296638
21033648 29 18059561508603660096
21033650 10 18189075152260994542
21133410 62 17982181019904993441
21236236 1 18410576171822730181
21279426 13 18270402677382667732
221357 26 18342737459634907456
23557571 272 18411141350711087060
23559900 14 18266178525380882482
25147074 1 17895185546215627490
2747138 104 18115600373349399171
283562 15 18334008407089941451
350125 39 18409167727387137049
4098825 35 18341620274475307766
46194498 28 18130513037014797180
469060 322 17095242510321273229
508706 21 18410005546335885904
5104073 3 18114455661549019234
5252454 2 18116425938740887572
5283173 99 18413107238931481176
552612 73 18271815562461303075
57527295 17 18261403187726826050
5969126 39 18342729767723001255
7808743 9 18263924349912699569

> <PUBCHEM_SHAPE_MULTIPOLES>
496.69
14.46
4.23
1.2
6.9
3.15
-0.04
3.3
-1.37
-8.5
0.24
1.25
-0.12
2.22

> <PUBCHEM_SHAPE_SELFOVERLAP>
1043.431

> <PUBCHEM_SHAPE_VOLUME>
282

> <PUBCHEM_COORDINATE_TYPE>
2
5
10

$$$$
