3035552
  -OEChem-10241302563D

 28 28  0     0  0  0  0  0  0999 V2000
    0.4023    2.8381    0.9340 S   0  0  0  0  0  0  0  0  0  0  0  0
    4.6559    0.1022    0.2854 O   0  0  0  0  0  0  0  0  0  0  0  0
   -0.0620    0.1800    0.2833 N   0  0  0  0  0  0  0  0  0  0  0  0
    2.0716    1.0608   -0.0210 N   0  0  0  0  0  0  0  0  0  0  0  0
    2.4797   -0.1684   -0.4831 N   0  0  0  0  0  0  0  0  0  0  0  0
   -1.4436    0.0225    0.0094 C   0  0  0  0  0  0  0  0  0  0  0  0
   -2.1260   -1.0823    0.4897 C   0  0  0  0  0  0  0  0  0  0  0  0
   -2.0817    0.9954   -0.7422 C   0  0  0  0  0  0  0  0  0  0  0  0
   -3.4858   -1.2188    0.2105 C   0  0  0  0  0  0  0  0  0  0  0  0
   -1.4473   -2.1377    1.3011 C   0  0  0  0  0  0  0  0  0  0  0  0
   -3.4415    0.8590   -1.0213 C   0  0  0  0  0  0  0  0  0  0  0  0
   -4.1436   -0.2480   -0.5449 C   0  0  0  0  0  0  0  0  0  0  0  0
    0.7666    1.2911    0.4000 C   0  0  0  0  0  0  0  0  0  0  0  0
    3.7888   -0.5578   -0.2823 C   0  0  0  0  0  0  0  0  0  0  0  0
    4.0666   -1.9361   -0.8186 C   0  0  0  0  0  0  0  0  0  0  0  0
   -1.5560    1.8499   -1.1555 H   0  0  0  0  0  0  0  0  0  0  0  0
   -4.0479   -2.0757    0.5725 H   0  0  0  0  0  0  0  0  0  0  0  0
    0.4163   -0.6924    0.4941 H   0  0  0  0  0  0  0  0  0  0  0  0
   -0.9486   -1.6971    2.1710 H   0  0  0  0  0  0  0  0  0  0  0  0
   -2.1599   -2.8773    1.6828 H   0  0  0  0  0  0  0  0  0  0  0  0
   -0.7125   -2.6747    0.6923 H   0  0  0  0  0  0  0  0  0  0  0  0
   -3.9523    1.6106   -1.6162 H   0  0  0  0  0  0  0  0  0  0  0  0
   -5.2019   -0.3551   -0.7641 H   0  0  0  0  0  0  0  0  0  0  0  0
    2.7706    1.7966   -0.0066 H   0  0  0  0  0  0  0  0  0  0  0  0
    1.8036   -0.7183   -1.0030 H   0  0  0  0  0  0  0  0  0  0  0  0
    5.1355   -2.0390   -1.0252 H   0  0  0  0  0  0  0  0  0  0  0  0
    3.7671   -2.6790   -0.0745 H   0  0  0  0  0  0  0  0  0  0  0  0
    3.5163   -2.1115   -1.7474 H   0  0  0  0  0  0  0  0  0  0  0  0
  1 13  2  0  0  0  0
  2 14  2  0  0  0  0
  3  6  1  0  0  0  0
  3 13  1  0  0  0  0
  3 18  1  0  0  0  0
  4  5  1  0  0  0  0
  4 13  1  0  0  0  0
  4 24  1  0  0  0  0
  5 14  1  0  0  0  0
  5 25  1  0  0  0  0
  6  7  1  0  0  0  0
  6  8  2  0  0  0  0
  7  9  2  0  0  0  0
  7 10  1  0  0  0  0
  8 11  1  0  0  0  0
  8 16  1  0  0  0  0
  9 12  1  0  0  0  0
  9 17  1  0  0  0  0
 10 19  1  0  0  0  0
 10 20  1  0  0  0  0
 10 21  1  0  0  0  0
 11 12  2  0  0  0  0
 11 22  1  0  0  0  0
 12 23  1  0  0  0  0
 14 15  1  0  0  0  0
 15 26  1  0  0  0  0
 15 27  1  0  0  0  0
 15 28  1  0  0  0  0
M  END
> <PUBCHEM_COMPOUND_CID>
3035552

> <PUBCHEM_CONFORMER_RMSD>
0.6

> <PUBCHEM_CONFORMER_DIVERSEORDER>
2
11
45
26
44
41
12
5
43
15
9
47
31
28
24
20
30
42
50
51
34
23
33
17
40
35
38
32
39
29
8
10
25
22
18
36
14
27
37
7
13
48
3
4
16
46
19
49
21
6
1

> <PUBCHEM_MMFF94_PARTIAL_CHARGES>
22
1 -0.38
10 0.14
11 -0.15
12 -0.15
13 0.5
14 0.57
15 0.06
16 0.15
17 0.15
18 0.37
2 -0.57
22 0.15
23 0.15
24 0.37
25 0.37
3 -0.55
4 -0.43
5 -0.43
6 0.12
7 -0.14
8 -0.15
9 -0.15

> <PUBCHEM_EFFECTIVE_ROTOR_COUNT>
5

> <PUBCHEM_PHARMACOPHORE_FEATURES>
6
1 1 acceptor
1 2 acceptor
1 3 donor
1 4 donor
1 5 donor
6 6 7 8 9 11 12 rings

> <PUBCHEM_HEAVY_ATOM_COUNT>
15

> <PUBCHEM_ATOM_DEF_STEREO_COUNT>
0

> <PUBCHEM_ATOM_UDEF_STEREO_COUNT>
0

> <PUBCHEM_BOND_DEF_STEREO_COUNT>
0

> <PUBCHEM_BOND_UDEF_STEREO_COUNT>
0

> <PUBCHEM_ISOTOPIC_ATOM_COUNT>
0

> <PUBCHEM_COMPONENT_COUNT>
1

> <PUBCHEM_CACTVS_TAUTO_COUNT>
6

> <PUBCHEM_CONFORMER_ID>
002E51A000000002

> <PUBCHEM_MMFF94_ENERGY>
50.5358

> <PUBCHEM_FEATURE_SELFOVERLAP>
32.031

> <PUBCHEM_SHAPE_FINGERPRINT>
10465860 250 18411411809065216792
12186901 62 17385438813505878807
12363563 72 18130235878095051790
13296909 8 15051742945234788001
14115302 16 18113908164544991636
14252887 29 17704078391315801006
14386348 63 18413108372797539994
15375358 24 18411976979701320426
17804303 29 18261393390430870873
17834072 14 18341610400123727096
17834074 16 18333450966877713334
17870717 6 18335714797021616614
18186145 218 18261940930258217341
200 152 17703785929665066999
20201158 50 18411703183741195022
20279233 1 18410576193271257834
20325693 3 17530970172363280695
20645476 183 16443059526173972803
20645477 70 18272088318480414038
20671657 53 18273219698523062960
20871999 31 18333734593738593044
22079108 93 13046241480124258925
22802520 49 18190181389459325105
23175994 123 18343587334646656733
23403322 49 18412264995570520038
23526113 38 18411133675303998448
23559900 14 18409163299723845000
2748010 2 17827351391589115283
6049 1 18117280470113805729
7364860 26 18125437755201568256
81228 2 18056495953952551040
8809292 202 18334015033649089419
90316 7 13614251364487015659
9709674 26 18335423520950634966

> <PUBCHEM_SHAPE_MULTIPOLES>
291.73
8.28
2.38
1.03
6.06
0.82
0.09
-3.58
-2.27
0.58
0.8
-0.38
-0.09
1.31

> <PUBCHEM_SHAPE_SELFOVERLAP>
582.785

> <PUBCHEM_SHAPE_VOLUME>
173.4

> <PUBCHEM_COORDINATE_TYPE>
2
5
10

$$$$
