1819170
  -OEChem-10241303023D

 68 72  0     0  0  0  0  0  0999 V2000
    3.9755    0.5736   -1.0945 S   0  0  0  0  0  0  0  0  0  0  0  0
    2.2116    5.8917   -0.5002 S   0  0  0  0  0  0  0  0  0  0  0  0
   -3.8773   -2.3225    0.8795 O   0  0  0  0  0  0  0  0  0  0  0  0
    2.3383   -2.5267    1.9159 O   0  0  0  0  0  0  0  0  0  0  0  0
    1.9017    4.9405    0.7985 O   0  0  0  0  0  0  0  0  0  0  0  0
    1.5190    5.3367   -1.6491 O   0  0  0  0  0  0  0  0  0  0  0  0
    3.6393    6.1504   -0.5470 O   0  0  0  0  0  0  0  0  0  0  0  0
   -6.7324   -0.2399   -0.1680 N   0  0  0  0  0  0  0  0  0  0  0  0
    1.4355    7.3682   -0.0973 N   0  0  0  0  0  0  0  0  0  0  0  0
   -7.8489    0.3076    0.6154 C   0  0  0  0  0  0  0  0  0  0  0  0
   -7.2090   -0.8503   -1.4171 C   0  0  0  0  0  0  0  0  0  0  0  0
   -8.6157    1.3648   -0.1807 C   0  0  0  0  0  0  0  0  0  0  0  0
   -7.9550    0.1688   -2.2795 C   0  0  0  0  0  0  0  0  0  0  0  0
   -9.1067    0.8079   -1.5121 C   0  0  0  0  0  0  0  0  0  0  0  0
   -5.9813   -1.2141    0.6232 C   0  0  0  0  0  0  0  0  0  0  0  0
   -4.5744   -1.3827    0.0724 C   0  0  0  0  0  0  0  0  0  0  0  0
   -2.5175   -2.1749    0.9653 C   0  0  0  0  0  0  0  0  0  0  0  0
    2.3858   -0.6284    0.5119 C   0  0  0  0  0  0  0  0  0  0  0  0
    2.1350    0.7708    0.7107 C   0  0  0  0  0  0  0  0  0  0  0  0
    3.3540   -0.8694   -0.4337 C   0  0  0  0  0  0  0  0  0  0  0  0
    2.9471    1.5529   -0.1164 C   0  0  0  0  0  0  0  0  0  0  0  0
    0.2505   -1.8750    1.1396 C   0  0  0  0  0  0  0  0  0  0  0  0
    1.6936   -1.7183    1.2305 C   0  0  0  0  0  0  0  0  0  0  0  0
    3.8836   -2.1259   -0.9155 C   0  0  0  0  0  0  0  0  0  0  0  0
   -1.8445   -2.5716    2.1209 C   0  0  0  0  0  0  0  0  0  0  0  0
   -1.8065   -1.6285   -0.1032 C   0  0  0  0  0  0  0  0  0  0  0  0
   -0.4604   -2.4215    2.2082 C   0  0  0  0  0  0  0  0  0  0  0  0
   -0.4226   -1.4785   -0.0160 C   0  0  0  0  0  0  0  0  0  0  0  0
    1.2308    1.4303    1.5781 C   0  0  0  0  0  0  0  0  0  0  0  0
    4.9851   -2.7250   -0.3043 C   0  0  0  0  0  0  0  0  0  0  0  0
    2.8787    2.9598   -0.0983 C   0  0  0  0  0  0  0  0  0  0  0  0
    1.9767    3.5805    0.7678 C   0  0  0  0  0  0  0  0  0  0  0  0
    1.1607    2.8258    1.5983 C   0  0  0  0  0  0  0  0  0  0  0  0
    3.2742   -2.7392   -2.0101 C   0  0  0  0  0  0  0  0  0  0  0  0
    5.4769   -3.9375   -0.7878 C   0  0  0  0  0  0  0  0  0  0  0  0
    5.6643   -2.0978    0.8708 C   0  0  0  0  0  0  0  0  0  0  0  0
    3.7664   -3.9517   -2.4936 C   0  0  0  0  0  0  0  0  0  0  0  0
    4.8677   -4.5507   -1.8824 C   0  0  0  0  0  0  0  0  0  0  0  0
   -7.4676    0.7841    1.5269 H   0  0  0  0  0  0  0  0  0  0  0  0
   -8.5353   -0.4911    0.9265 H   0  0  0  0  0  0  0  0  0  0  0  0
   -7.8692   -1.7028   -1.2083 H   0  0  0  0  0  0  0  0  0  0  0  0
   -6.3732   -1.2279   -2.0149 H   0  0  0  0  0  0  0  0  0  0  0  0
   -7.9658    2.2300   -0.3638 H   0  0  0  0  0  0  0  0  0  0  0  0
   -9.4683    1.7242    0.4065 H   0  0  0  0  0  0  0  0  0  0  0  0
   -7.2586    0.9496   -2.6110 H   0  0  0  0  0  0  0  0  0  0  0  0
   -8.3396   -0.3203   -3.1817 H   0  0  0  0  0  0  0  0  0  0  0  0
   -9.8863    0.0580   -1.3301 H   0  0  0  0  0  0  0  0  0  0  0  0
   -9.5603    1.6061   -2.1097 H   0  0  0  0  0  0  0  0  0  0  0  0
   -6.4955   -2.1819    0.6913 H   0  0  0  0  0  0  0  0  0  0  0  0
   -5.8774   -0.8678    1.6609 H   0  0  0  0  0  0  0  0  0  0  0  0
   -4.5881   -1.7651   -0.9532 H   0  0  0  0  0  0  0  0  0  0  0  0
   -4.0853   -0.3991    0.0855 H   0  0  0  0  0  0  0  0  0  0  0  0
   -2.3936   -2.9966    2.9567 H   0  0  0  0  0  0  0  0  0  0  0  0
   -2.2872   -1.3357   -1.0319 H   0  0  0  0  0  0  0  0  0  0  0  0
    0.0445   -2.7313    3.1195 H   0  0  0  0  0  0  0  0  0  0  0  0
    0.1050   -1.0693   -0.8732 H   0  0  0  0  0  0  0  0  0  0  0  0
    0.5856    0.8630    2.2438 H   0  0  0  0  0  0  0  0  0  0  0  0
    3.5430    3.5244   -0.7438 H   0  0  0  0  0  0  0  0  0  0  0  0
    0.4619    3.3147    2.2721 H   0  0  0  0  0  0  0  0  0  0  0  0
    2.4133   -2.2879   -2.4983 H   0  0  0  0  0  0  0  0  0  0  0  0
    6.3344   -4.4185   -0.3248 H   0  0  0  0  0  0  0  0  0  0  0  0
    6.4468   -2.7482    1.2780 H   0  0  0  0  0  0  0  0  0  0  0  0
    4.9596   -1.9094    1.6859 H   0  0  0  0  0  0  0  0  0  0  0  0
    6.1464   -1.1587    0.5812 H   0  0  0  0  0  0  0  0  0  0  0  0
    3.2916   -4.4295   -3.3455 H   0  0  0  0  0  0  0  0  0  0  0  0
    5.2506   -5.4947   -2.2590 H   0  0  0  0  0  0  0  0  0  0  0  0
    1.7431    8.2046   -0.6097 H   0  0  0  0  0  0  0  0  0  0  0  0
    0.4149    7.3337    0.0219 H   0  0  0  0  0  0  0  0  0  0  0  0
  1 20  1  0  0  0  0
  1 21  1  0  0  0  0
  2  5  1  0  0  0  0
  2  6  2  0  0  0  0
  2  7  2  0  0  0  0
  2  9  1  0  0  0  0
  3 16  1  0  0  0  0
  3 17  1  0  0  0  0
  4 23  2  0  0  0  0
  5 32  1  0  0  0  0
  8 10  1  0  0  0  0
  8 11  1  0  0  0  0
  8 15  1  0  0  0  0
  9 67  1  0  0  0  0
  9 68  1  0  0  0  0
 10 12  1  0  0  0  0
 10 39  1  0  0  0  0
 10 40  1  0  0  0  0
 11 13  1  0  0  0  0
 11 41  1  0  0  0  0
 11 42  1  0  0  0  0
 12 14  1  0  0  0  0
 12 43  1  0  0  0  0
 12 44  1  0  0  0  0
 13 14  1  0  0  0  0
 13 45  1  0  0  0  0
 13 46  1  0  0  0  0
 14 47  1  0  0  0  0
 14 48  1  0  0  0  0
 15 16  1  0  0  0  0
 15 49  1  0  0  0  0
 15 50  1  0  0  0  0
 16 51  1  0  0  0  0
 16 52  1  0  0  0  0
 17 25  2  0  0  0  0
 17 26  1  0  0  0  0
 18 19  1  0  0  0  0
 18 20  2  0  0  0  0
 18 23  1  0  0  0  0
 19 21  2  0  0  0  0
 19 29  1  0  0  0  0
 20 24  1  0  0  0  0
 21 31  1  0  0  0  0
 22 23  1  0  0  0  0
 22 27  2  0  0  0  0
 22 28  1  0  0  0  0
 24 30  1  0  0  0  0
 24 34  2  0  0  0  0
 25 27  1  0  0  0  0
 25 53  1  0  0  0  0
 26 28  2  0  0  0  0
 26 54  1  0  0  0  0
 27 55  1  0  0  0  0
 28 56  1  0  0  0  0
 29 33  2  0  0  0  0
 29 57  1  0  0  0  0
 30 35  2  0  0  0  0
 30 36  1  0  0  0  0
 31 32  2  0  0  0  0
 31 58  1  0  0  0  0
 32 33  1  0  0  0  0
 33 59  1  0  0  0  0
 34 37  1  0  0  0  0
 34 60  1  0  0  0  0
 35 38  1  0  0  0  0
 35 61  1  0  0  0  0
 36 62  1  0  0  0  0
 36 63  1  0  0  0  0
 36 64  1  0  0  0  0
 37 38  2  0  0  0  0
 37 65  1  0  0  0  0
 38 66  1  0  0  0  0
M  END
> <PUBCHEM_COMPOUND_CID>
1819170

> <PUBCHEM_CONFORMER_RMSD>
1.2

> <PUBCHEM_CONFORMER_DIVERSEORDER>
1
73
70
57
54
55
35
72
77
45
58
51
68
32
64
66
89
88
31
19
87
42
65
86
56
28
91
82
74
90
26
41
11
53
79
6
61
33
85
59
8
67
22
44
37
62
18
71
5
21
50
43
12
80
14
75
48
20
29
25
30
16
76
81
63
15
52
4
69
78
40
46
24
10
39
83
84
7
49
3
34
60
23
38
27
17
36
9
47
13
2

> <PUBCHEM_MMFF94_PARTIAL_CHARGES>
47
1 -0.08
10 0.27
11 0.27
15 0.27
16 0.28
17 0.08
18 -0.09
2 1.62
20 -0.01
21 0.04
22 0.09
23 0.57
24 0.05
25 -0.15
26 -0.15
27 -0.15
28 -0.15
29 -0.15
3 -0.36
30 -0.14
31 -0.15
32 0.08
33 -0.15
34 -0.15
35 -0.15
36 0.14
37 -0.15
38 -0.15
4 -0.57
5 -0.27
53 0.15
54 0.15
55 0.15
56 0.15
57 0.15
58 0.15
59 0.15
6 -0.65
60 0.15
61 0.15
65 0.15
66 0.15
67 0.42
68 0.42
7 -0.65
8 -0.81
9 -0.98

> <PUBCHEM_EFFECTIVE_ROTOR_COUNT>
10.2

> <PUBCHEM_PHARMACOPHORE_FEATURES>
11
1 3 acceptor
1 4 acceptor
1 6 acceptor
1 7 acceptor
1 8 cation
1 9 donor
5 1 18 19 20 21 rings
6 17 22 25 26 27 28 rings
6 19 21 29 31 32 33 rings
6 24 30 34 35 37 38 rings
6 8 10 11 12 13 14 rings

> <PUBCHEM_HEAVY_ATOM_COUNT>
38

> <PUBCHEM_ATOM_DEF_STEREO_COUNT>
0

> <PUBCHEM_ATOM_UDEF_STEREO_COUNT>
0

> <PUBCHEM_BOND_DEF_STEREO_COUNT>
0

> <PUBCHEM_BOND_UDEF_STEREO_COUNT>
0

> <PUBCHEM_ISOTOPIC_ATOM_COUNT>
0

> <PUBCHEM_COMPONENT_COUNT>
1

> <PUBCHEM_CACTVS_TAUTO_COUNT>
1

> <PUBCHEM_CONFORMER_ID>
001BC22200000001

> <PUBCHEM_MMFF94_ENERGY>
102.0619

> <PUBCHEM_FEATURE_SELFOVERLAP>
55.9

> <PUBCHEM_SHAPE_FINGERPRINT>
10675989 125 18337389469511854249
10985338 8 17905036302901795448
11115154 58 18339647715601477963
11297010 23 18267583692266403620
11386260 185 18412537700703716111
11720765 8 18342741810452583328
11828422 8 18120666978801858140
11828532 37 18334869333337581195
13944108 23 18337110167334927185
14068700 686 17688880048001669891
14400156 350 18266452290992108180
15198563 99 18123483678631582446
15530120 55 17843668097317552615
16988056 13 18409168831019593956
17899979 129 18196659711696199460
18335252 114 18340762655469277191
18365409 1 17545337280455910908
19053607 189 17978780535292996665
19309040 13 18126004021307371757
19311894 1 17980771432584916369
21133410 58 18343017757913250231
21362857 166 17631431493912312583
21857420 4 18337402586510125300
21987440 362 17829612017107907540
22899556 56 17617906195283751098
23576562 1 18343303708055465983
3103668 31 17977108959342381485
376196 1 17830456438137899098
4066623 53 18338237042472704390
44317340 157 18271243945696986187
4760202 170 18265884771557098221
508180 173 18264211322921796993
5223283 242 18341059502012828767
58902169 19 17989198227967333743
6086070 43 18334299755980545795
9658208 31 17531536472460577411

> <PUBCHEM_SHAPE_MULTIPOLES>
750.41
19.59
8.89
2.08
65.49
21.82
0.26
-9.3
11.01
-16.8
2.53
0.16
-1.61
2.92

> <PUBCHEM_SHAPE_SELFOVERLAP>
1608.685

> <PUBCHEM_SHAPE_VOLUME>
417.6

> <PUBCHEM_COORDINATE_TYPE>
2
5
10

$$$$
