152216
  -OEChem-10241303123D

 17 17  0     0  0  0  0  0  0999 V2000
    2.2616   -0.4730    0.0930 S   0  0  0  0  0  0  0  0  0  0  0  0
    2.6874   -0.6763   -1.4725 O   0  0  0  0  0  0  0  0  0  0  0  0
    3.1719    0.5141    0.6554 O   0  0  0  0  0  0  0  0  0  0  0  0
    2.1283   -1.7888    0.6989 O   0  0  0  0  0  0  0  0  0  0  0  0
   -2.8502   -0.8452   -0.0091 N   0  3  0  0  0  0  0  0  0  0  0  0
   -3.7316   -1.4905   -0.0164 N   0  0  0  0  0  0  0  0  0  0  0  0
    0.6645    0.2304    0.0463 C   0  0  0  0  0  0  0  0  0  0  0  0
   -0.4613   -0.5933    0.0380 C   0  0  0  0  0  0  0  0  0  0  0  0
    0.5144    1.6169    0.0167 C   0  0  0  0  0  0  0  0  0  0  0  0
   -1.7370   -0.0303    0.0001 C   0  0  0  0  0  0  0  0  0  0  0  0
   -0.7612    2.1799   -0.0211 C   0  0  0  0  0  0  0  0  0  0  0  0
   -1.8869    1.3562   -0.0294 C   0  0  0  0  0  0  0  0  0  0  0  0
   -0.3609   -1.6755    0.0526 H   0  0  0  0  0  0  0  0  0  0  0  0
    1.3767    2.2777    0.0151 H   0  0  0  0  0  0  0  0  0  0  0  0
   -0.8781    3.2593   -0.0458 H   0  0  0  0  0  0  0  0  0  0  0  0
   -2.8774    1.8024   -0.0596 H   0  0  0  0  0  0  0  0  0  0  0  0
    2.7455    0.1512   -2.0057 H   0  0  0  0  0  0  0  0  0  0  0  0
  1  2  1  0  0  0  0
  1  3  2  0  0  0  0
  1  4  2  0  0  0  0
  1  7  1  0  0  0  0
  2 17  1  0  0  0  0
  5  6  3  0  0  0  0
  5 10  1  0  0  0  0
  7  8  1  0  0  0  0
  7  9  2  0  0  0  0
  8 10  2  0  0  0  0
  8 13  1  0  0  0  0
  9 11  1  0  0  0  0
  9 14  1  0  0  0  0
 10 12  1  0  0  0  0
 11 12  2  0  0  0  0
 11 15  1  0  0  0  0
 12 16  1  0  0  0  0
M  CHG  1   5   1
M  END
> <PUBCHEM_COMPOUND_CID>
152216

> <PUBCHEM_CONFORMER_RMSD>
0.4

> <PUBCHEM_CONFORMER_DIVERSEORDER>
2
1

> <PUBCHEM_MMFF94_PARTIAL_CHARGES>
17
1 1.49
10 0.14
11 -0.15
12 -0.15
13 0.15
14 0.15
15 0.15
16 0.15
17 0.5
2 -0.68
3 -0.65
4 -0.65
5 1.35
6 -0.49
7 -0.01
8 -0.15
9 -0.15

> <PUBCHEM_EFFECTIVE_ROTOR_COUNT>
1

> <PUBCHEM_PHARMACOPHORE_FEATURES>
5
1 2 acceptor
1 3 acceptor
1 4 acceptor
4 1 2 3 4 anion
6 7 8 9 10 11 12 rings

> <PUBCHEM_HEAVY_ATOM_COUNT>
12

> <PUBCHEM_ATOM_DEF_STEREO_COUNT>
0

> <PUBCHEM_ATOM_UDEF_STEREO_COUNT>
0

> <PUBCHEM_BOND_DEF_STEREO_COUNT>
0

> <PUBCHEM_BOND_UDEF_STEREO_COUNT>
0

> <PUBCHEM_ISOTOPIC_ATOM_COUNT>
0

> <PUBCHEM_COMPONENT_COUNT>
1

> <PUBCHEM_CACTVS_TAUTO_COUNT>
1

> <PUBCHEM_CONFORMER_ID>
0002529800000002

> <PUBCHEM_MMFF94_ENERGY>
16.4219

> <PUBCHEM_FEATURE_SELFOVERLAP>
25.428

> <PUBCHEM_SHAPE_FINGERPRINT>
10857977 72 18341038670861689512
12716758 59 18123188991718296788
12932764 1 18264216811483870512
14128692 85 18409739477459334173
14252887 29 18201449128549152971
161256 15 18341048622227281937
16945 1 18113910376305462209
20201158 50 18188486986000814019
20645477 70 18124874814444704207
20715346 28 17846212224598715452
20871998 184 18201996599524407053
20871998 22 18342746234036802343
21501925 9 18340198713008593241
23552423 10 18260835877589762628
23559900 14 17695346972349798190
2748010 2 18412254043462015357
3248919 1 17416676956341616512
369184 2 18265890259501870112
7364860 26 17984141732066341209
8030462 33 18113909212627865742
81228 2 18336271128562316289

> <PUBCHEM_SHAPE_MULTIPOLES>
223.23
4.87
1.95
0.79
0.54
0.53
0.17
-2.48
0.06
0.74
-0.11
-0.55
-0.11
0.06

> <PUBCHEM_SHAPE_SELFOVERLAP>
455.142

> <PUBCHEM_SHAPE_VOLUME>
129.2

> <PUBCHEM_COORDINATE_TYPE>
2
5
10

$$$$
