94381
  -OEChem-10241303073D

 44 47  0     0  0  0  0  0  0999 V2000
    0.9200    1.7921   -0.0432 O   0  0  0  0  0  0  0  0  0  0  0  0
   -1.1503    2.7404   -0.1908 O   0  0  0  0  0  0  0  0  0  0  0  0
    5.3234   -0.1499    0.3123 N   0  0  0  0  0  0  0  0  0  0  0  0
   -3.0094   -0.9405   -0.3873 N   0  0  0  0  0  0  0  0  0  0  0  0
   -3.4521    1.0682    0.4548 N   0  0  0  0  0  0  0  0  0  0  0  0
    3.9208   -0.2978    0.3030 C   0  0  0  0  0  0  0  0  0  0  0  0
    1.1362   -0.6045    0.2877 C   0  0  0  0  0  0  0  0  0  0  0  0
    6.1819   -1.3042    0.4891 C   0  0  0  0  0  0  0  0  0  0  0  0
    5.9248    1.1565    0.1313 C   0  0  0  0  0  0  0  0  0  0  0  0
    1.7204    0.6468    0.1284 C   0  0  0  0  0  0  0  0  0  0  0  0
    3.1033    0.8173    0.1335 C   0  0  0  0  0  0  0  0  0  0  0  0
   -1.0793    0.3791    0.1072 C   0  0  0  0  0  0  0  0  0  0  0  0
    3.3521   -1.5630    0.4650 C   0  0  0  0  0  0  0  0  0  0  0  0
   -0.3136   -0.7106    0.2692 C   0  0  0  0  0  0  0  0  0  0  0  0
    1.9629   -1.7180    0.4573 C   0  0  0  0  0  0  0  0  0  0  0  0
   -2.5026    0.2378    0.0861 C   0  0  0  0  0  0  0  0  0  0  0  0
   -4.3769   -0.8653   -0.3199 C   0  0  0  0  0  0  0  0  0  0  0  0
   -0.4712    1.7275   -0.0561 C   0  0  0  0  0  0  0  0  0  0  0  0
   -4.6283    0.3979    0.2090 C   0  0  0  0  0  0  0  0  0  0  0  0
    6.5030   -1.9271   -0.8558 C   0  0  0  0  0  0  0  0  0  0  0  0
    5.9676    1.5119   -1.3425 C   0  0  0  0  0  0  0  0  0  0  0  0
   -5.3849   -1.7660   -0.6655 C   0  0  0  0  0  0  0  0  0  0  0  0
   -5.9584    0.8029    0.4120 C   0  0  0  0  0  0  0  0  0  0  0  0
   -6.7028   -1.3463   -0.4570 C   0  0  0  0  0  0  0  0  0  0  0  0
   -6.9867   -0.0852    0.0721 C   0  0  0  0  0  0  0  0  0  0  0  0
    5.7909   -2.0397    1.1990 H   0  0  0  0  0  0  0  0  0  0  0  0
    7.1304   -0.9903    0.9447 H   0  0  0  0  0  0  0  0  0  0  0  0
    5.4300    1.9338    0.7241 H   0  0  0  0  0  0  0  0  0  0  0  0
    6.9570    1.1511    0.5043 H   0  0  0  0  0  0  0  0  0  0  0  0
    3.4794    1.8254    0.0033 H   0  0  0  0  0  0  0  0  0  0  0  0
    3.9304   -2.4726    0.5807 H   0  0  0  0  0  0  0  0  0  0  0  0
   -0.7164   -1.7077    0.4187 H   0  0  0  0  0  0  0  0  0  0  0  0
    1.5398   -2.7121    0.5796 H   0  0  0  0  0  0  0  0  0  0  0  0
   -2.4951   -1.7280   -0.7596 H   0  0  0  0  0  0  0  0  0  0  0  0
    7.0798   -2.8467   -0.7112 H   0  0  0  0  0  0  0  0  0  0  0  0
    7.1097   -1.2613   -1.4752 H   0  0  0  0  0  0  0  0  0  0  0  0
    5.5996   -2.1828   -1.4182 H   0  0  0  0  0  0  0  0  0  0  0  0
    6.6173    0.8350   -1.9036 H   0  0  0  0  0  0  0  0  0  0  0  0
    4.9826    1.4889   -1.8170 H   0  0  0  0  0  0  0  0  0  0  0  0
    6.3713    2.5223   -1.4670 H   0  0  0  0  0  0  0  0  0  0  0  0
   -5.1621   -2.7443   -1.0759 H   0  0  0  0  0  0  0  0  0  0  0  0
   -6.1893    1.7807    0.8224 H   0  0  0  0  0  0  0  0  0  0  0  0
   -7.5212   -2.0152   -0.7118 H   0  0  0  0  0  0  0  0  0  0  0  0
   -8.0212    0.2127    0.2228 H   0  0  0  0  0  0  0  0  0  0  0  0
  1 10  1  0  0  0  0
  1 18  1  0  0  0  0
  2 18  2  0  0  0  0
  3  6  1  0  0  0  0
  3  8  1  0  0  0  0
  3  9  1  0  0  0  0
  4 16  1  0  0  0  0
  4 17  1  0  0  0  0
  4 34  1  0  0  0  0
  5 16  2  0  0  0  0
  5 19  1  0  0  0  0
  6 11  2  0  0  0  0
  6 13  1  0  0  0  0
  7 10  2  0  0  0  0
  7 14  1  0  0  0  0
  7 15  1  0  0  0  0
  8 20  1  0  0  0  0
  8 26  1  0  0  0  0
  8 27  1  0  0  0  0
  9 21  1  0  0  0  0
  9 28  1  0  0  0  0
  9 29  1  0  0  0  0
 10 11  1  0  0  0  0
 11 30  1  0  0  0  0
 12 14  2  0  0  0  0
 12 16  1  0  0  0  0
 12 18  1  0  0  0  0
 13 15  2  0  0  0  0
 13 31  1  0  0  0  0
 14 32  1  0  0  0  0
 15 33  1  0  0  0  0
 17 19  1  0  0  0  0
 17 22  2  0  0  0  0
 19 23  2  0  0  0  0
 20 35  1  0  0  0  0
 20 36  1  0  0  0  0
 20 37  1  0  0  0  0
 21 38  1  0  0  0  0
 21 39  1  0  0  0  0
 21 40  1  0  0  0  0
 22 24  1  0  0  0  0
 22 41  1  0  0  0  0
 23 25  1  0  0  0  0
 23 42  1  0  0  0  0
 24 25  2  0  0  0  0
 24 43  1  0  0  0  0
 25 44  1  0  0  0  0
M  END
> <PUBCHEM_COMPOUND_CID>
94381

> <PUBCHEM_CONFORMER_RMSD>
0.8

> <PUBCHEM_CONFORMER_DIVERSEORDER>
3
1
2
4

> <PUBCHEM_MMFF94_PARTIAL_CHARGES>
32
1 -0.23
10 0.08
11 -0.15
12 0.06
13 -0.15
14 -0.18
15 -0.15
16 0.14
17 -0.15
18 0.71
19 0.23
2 -0.57
22 -0.15
23 -0.15
24 -0.15
25 -0.15
3 -0.84
30 0.15
31 0.15
32 0.15
33 0.15
34 0.27
4 0.03
41 0.15
42 0.15
43 0.15
44 0.15
5 -0.57
6 0.1
7 0.03
8 0.37
9 0.37

> <PUBCHEM_EFFECTIVE_ROTOR_COUNT>
4

> <PUBCHEM_PHARMACOPHORE_FEATURES>
8
1 2 acceptor
1 3 cation
1 4 donor
3 4 5 16 cation
5 4 5 16 17 19 rings
6 1 7 10 12 14 18 rings
6 17 19 22 23 24 25 rings
6 6 7 10 11 13 15 rings

> <PUBCHEM_HEAVY_ATOM_COUNT>
25

> <PUBCHEM_ATOM_DEF_STEREO_COUNT>
0

> <PUBCHEM_ATOM_UDEF_STEREO_COUNT>
0

> <PUBCHEM_BOND_DEF_STEREO_COUNT>
0

> <PUBCHEM_BOND_UDEF_STEREO_COUNT>
0

> <PUBCHEM_ISOTOPIC_ATOM_COUNT>
0

> <PUBCHEM_COMPONENT_COUNT>
1

> <PUBCHEM_CACTVS_TAUTO_COUNT>
1

> <PUBCHEM_CONFORMER_ID>
000170AD00000003

> <PUBCHEM_MMFF94_ENERGY>
81.2888

> <PUBCHEM_FEATURE_SELFOVERLAP>
40.731

> <PUBCHEM_SHAPE_FINGERPRINT>
10050765 1 18121778323006121842
10299344 5 18412829087805711919
10595046 47 18410292493026526538
10906281 52 18336282187833720811
10968037 39 18409166628154720239
11315181 36 18131351930243193433
11524674 6 16128654163315961919
11719270 70 17917992754813516014
11963148 33 18411973655081337254
12107183 9 17693097362594199331
12166972 35 17821731624408818236
12236239 1 18344146994617868331
12516196 113 18342736329705288705
13288520 33 18413105066115567391
13533116 47 17168418256482736698
13685833 64 18335422387474544155
13862211 1 18335979801078113818
13899415 154 18131636707301149304
14251764 18 18343303682748871715
14347332 77 18263359184288539650
14556957 393 16661223437750881854
14787075 74 18334012796166313640
14849402 71 18267026231186870889
15183329 4 18130796650447436094
15196674 1 18410008806162861264
15927050 60 17623284283852649484
16087824 20 18265330605086980365
17492 89 18121212074708481482
18681886 176 18129655421965714723
20028762 73 18341891866759267598
20612939 158 18041562541727088773
21130935 74 18131069324894252282
21267235 1 18410859863034220675
21641784 216 17749401316853495180
221357 26 18412546492744643056
23035841 295 18341894078192119211
23081809 10 18410295808926018720
23402539 116 18413102862280509863
23522609 53 18195838256283464656
23559900 14 18267578182171411865
23569943 247 18121219783948360338
24771293 8 18197485428382228128
3004659 81 18186799179711808946
335352 9 18410011052420305198
34797466 226 16773801441614345832
350125 39 18412261735622056361
397830 11 15768630148457009179
4073 2 18113623421172606723
4093350 32 16486976254450745376
4325135 7 18408042922960354980
4340502 62 16008745814610169410
4463277 17 18410291410847969449
465052 167 18201721773062313454
5104073 3 18198049297315479520
5486654 2 18408606989341515790
559249 180 18342454842793014455
67856867 119 18269554000277150777
9831232 110 17987245430686328558
9996256 80 18341895160771498840
999808 66 18041007284688082835

> <PUBCHEM_SHAPE_MULTIPOLES>
487.81
19.21
2.09
0.8
3.95
0.32
0.12
-5.16
2.6
-1.11
0.26
-0.53
-0.04
-1.03

> <PUBCHEM_SHAPE_SELFOVERLAP>
1079.774

> <PUBCHEM_SHAPE_VOLUME>
262.2

> <PUBCHEM_COORDINATE_TYPE>
2
5
10

$$$$
