6706
  -OEChem-10241303083D

 29 31  0     0  0  0  0  0  0999 V2000
    0.2864    2.3314    0.1062 O   0  0  0  0  0  0  0  0  0  0  0  0
   -1.1829   -2.8033   -0.0743 O   0  0  0  0  0  0  0  0  0  0  0  0
    2.8245    1.7258    0.1489 N   0  0  0  0  0  0  0  0  0  0  0  0
    0.9890    0.0685    0.0571 C   0  0  0  0  0  0  0  0  0  0  0  0
    0.5951   -1.2703    0.0085 C   0  0  0  0  0  0  0  0  0  0  0  0
   -1.4531    0.7881    0.0238 C   0  0  0  0  0  0  0  0  0  0  0  0
   -1.8469   -0.5508   -0.0244 C   0  0  0  0  0  0  0  0  0  0  0  0
   -0.0208    1.1467    0.0661 C   0  0  0  0  0  0  0  0  0  0  0  0
    2.3498    0.3951    0.0978 C   0  0  0  0  0  0  0  0  0  0  0  0
   -0.8372   -1.6289   -0.0336 C   0  0  0  0  0  0  0  0  0  0  0  0
    1.5621   -2.2827    0.0000 C   0  0  0  0  0  0  0  0  0  0  0  0
    3.3102   -0.6170    0.0893 C   0  0  0  0  0  0  0  0  0  0  0  0
   -2.4201    1.8005    0.0320 C   0  0  0  0  0  0  0  0  0  0  0  0
   -3.2078   -0.8772   -0.0644 C   0  0  0  0  0  0  0  0  0  0  0  0
    2.9171   -1.9530    0.0402 C   0  0  0  0  0  0  0  0  0  0  0  0
   -3.7752    1.4708   -0.0077 C   0  0  0  0  0  0  0  0  0  0  0  0
   -4.1682    0.1347   -0.0556 C   0  0  0  0  0  0  0  0  0  0  0  0
    4.0781    2.1216   -0.4096 C   0  0  0  0  0  0  0  0  0  0  0  0
    1.2815   -3.3319   -0.0368 H   0  0  0  0  0  0  0  0  0  0  0  0
    4.3751   -0.4083    0.1325 H   0  0  0  0  0  0  0  0  0  0  0  0
   -2.1422    2.8504    0.0690 H   0  0  0  0  0  0  0  0  0  0  0  0
   -3.5400   -1.9112   -0.1023 H   0  0  0  0  0  0  0  0  0  0  0  0
    3.6662   -2.7396    0.0366 H   0  0  0  0  0  0  0  0  0  0  0  0
    2.1450    2.4543    0.3326 H   0  0  0  0  0  0  0  0  0  0  0  0
   -4.5249    2.2567   -0.0011 H   0  0  0  0  0  0  0  0  0  0  0  0
   -5.2238   -0.1194   -0.0865 H   0  0  0  0  0  0  0  0  0  0  0  0
    4.1985    1.7575   -1.4355 H   0  0  0  0  0  0  0  0  0  0  0  0
    4.9195    1.7778    0.2002 H   0  0  0  0  0  0  0  0  0  0  0  0
    4.1351    3.2147   -0.4429 H   0  0  0  0  0  0  0  0  0  0  0  0
  1  8  2  0  0  0  0
  2 10  2  0  0  0  0
  3  9  1  0  0  0  0
  3 18  1  0  0  0  0
  3 24  1  0  0  0  0
  4  5  2  0  0  0  0
  4  8  1  0  0  0  0
  4  9  1  0  0  0  0
  5 10  1  0  0  0  0
  5 11  1  0  0  0  0
  6  7  1  0  0  0  0
  6  8  1  0  0  0  0
  6 13  2  0  0  0  0
  7 10  1  0  0  0  0
  7 14  2  0  0  0  0
  9 12  2  0  0  0  0
 11 15  2  0  0  0  0
 11 19  1  0  0  0  0
 12 15  1  0  0  0  0
 12 20  1  0  0  0  0
 13 16  1  0  0  0  0
 13 21  1  0  0  0  0
 14 17  1  0  0  0  0
 14 22  1  0  0  0  0
 15 23  1  0  0  0  0
 16 17  2  0  0  0  0
 16 25  1  0  0  0  0
 17 26  1  0  0  0  0
 18 27  1  0  0  0  0
 18 28  1  0  0  0  0
 18 29  1  0  0  0  0
M  END
> <PUBCHEM_COMPOUND_CID>
6706

> <PUBCHEM_CONFORMER_RMSD>
0.6

> <PUBCHEM_CONFORMER_DIVERSEORDER>
1

> <PUBCHEM_MMFF94_PARTIAL_CHARGES>
26
1 -0.57
10 0.4
11 -0.15
12 -0.15
13 -0.15
14 -0.15
15 -0.15
16 -0.15
17 -0.15
18 0.37
19 0.15
2 -0.57
20 0.15
21 0.15
22 0.15
23 0.15
24 0.4
25 0.15
26 0.15
3 -0.87
4 0.09
5 0.09
6 0.09
7 0.09
8 0.4
9 0.1

> <PUBCHEM_EFFECTIVE_ROTOR_COUNT>
1

> <PUBCHEM_PHARMACOPHORE_FEATURES>
7
1 1 acceptor
1 2 acceptor
1 3 cation
1 3 donor
6 4 5 6 7 8 10 rings
6 4 5 9 11 12 15 rings
6 6 7 13 14 16 17 rings

> <PUBCHEM_HEAVY_ATOM_COUNT>
18

> <PUBCHEM_ATOM_DEF_STEREO_COUNT>
0

> <PUBCHEM_ATOM_UDEF_STEREO_COUNT>
0

> <PUBCHEM_BOND_DEF_STEREO_COUNT>
0

> <PUBCHEM_BOND_UDEF_STEREO_COUNT>
0

> <PUBCHEM_ISOTOPIC_ATOM_COUNT>
0

> <PUBCHEM_COMPONENT_COUNT>
1

> <PUBCHEM_CACTVS_TAUTO_COUNT>
4

> <PUBCHEM_CONFORMER_ID>
00001A3200000001

> <PUBCHEM_MMFF94_ENERGY>
68.7366

> <PUBCHEM_FEATURE_SELFOVERLAP>
35.562

> <PUBCHEM_SHAPE_FINGERPRINT>
10411042 1 16753813063367037527
10608611 8 18337106778736858933
10616163 171 18266462190231868350
10967382 1 18411136956584996704
10980938 120 18410855464533905506
11132069 177 18341040814150499499
11471102 20 18338793407930121943
13140716 1 18265901263397720481
13380535 76 18410290345564172266
13583140 156 16878206606983946121
138480 1 18050286960256023910
13897977 150 18338514140735399893
14178342 30 18123452033017003402
14790565 3 18266191701945843085
15196674 1 18410855456265737155
15442244 35 18195808470583987602
15536298 74 18342738490242305614
16945 1 18267580393456907819
18186145 218 18269838622931639269
193761 8 18194963173991980123
19591789 44 18410576167185209315
20510252 161 18343305885640125841
20645477 70 18340764849790903071
20739085 24 18120401798841644017
21267235 1 18339369573624851239
21501502 16 18411975879693911382
221490 88 18337117790954099090
2334 1 18411417293616913507
23366157 5 18113338583673917298
23402539 116 18199454498376205967
23463225 33 18337952277308451675
23559900 14 18270677555136936058
238 59 17468153831764978325
2748010 2 18338517435049143023
335352 9 18050848823218268167
34934 24 18340199799324115180
350125 39 18265900163638627196
474 4 17676775382825550372
5104073 3 18409731738270983577
69090 78 18412820270570221095
7364860 26 18341332210918310710
9709674 26 18411704265967776903
9981440 41 18191862547281108258

> <PUBCHEM_SHAPE_MULTIPOLES>
353.71
6.8
2.84
0.62
1
0.3
-0.01
-2.27
-0.29
-1.31
-0.08
-0.03
-0.02
-0.22

> <PUBCHEM_SHAPE_SELFOVERLAP>
794.859

> <PUBCHEM_SHAPE_VOLUME>
185.7

> <PUBCHEM_COORDINATE_TYPE>
2
5
10

$$$$
