1549512
  -OEChem-10241303053D

 23 23  0     0  0  0  0  0  0999 V2000
    5.2255    1.0246   -0.2428 O   0  0  0  0  0  0  0  0  0  0  0  0
    4.6840   -1.1422    0.2231 O   0  0  0  0  0  0  0  0  0  0  0  0
   -1.8891   -0.2958    0.0731 C   0  0  0  0  0  0  0  0  0  0  0  0
   -2.2324    1.0401    0.2048 C   0  0  0  0  0  0  0  0  0  0  0  0
   -2.8518   -1.2702   -0.1363 C   0  0  0  0  0  0  0  0  0  0  0  0
   -0.4714   -0.6882    0.1574 C   0  0  0  0  0  0  0  0  0  0  0  0
   -3.5745    1.4117    0.1253 C   0  0  0  0  0  0  0  0  0  0  0  0
   -4.1939   -0.8985   -0.2158 C   0  0  0  0  0  0  0  0  0  0  0  0
   -4.5552    0.4424   -0.0851 C   0  0  0  0  0  0  0  0  0  0  0  0
    0.5693    0.1402   -0.0245 C   0  0  0  0  0  0  0  0  0  0  0  0
    1.9459   -0.3003    0.0610 C   0  0  0  0  0  0  0  0  0  0  0  0
    2.9832    0.5280   -0.1207 C   0  0  0  0  0  0  0  0  0  0  0  0
    4.3604    0.0081   -0.0194 C   0  0  0  0  0  0  0  0  0  0  0  0
   -1.5069    1.8253    0.3919 H   0  0  0  0  0  0  0  0  0  0  0  0
   -2.5861   -2.3187   -0.2415 H   0  0  0  0  0  0  0  0  0  0  0  0
   -0.2890   -1.7390    0.3750 H   0  0  0  0  0  0  0  0  0  0  0  0
   -3.8572    2.4550    0.2323 H   0  0  0  0  0  0  0  0  0  0  0  0
   -4.9577   -1.6530   -0.3796 H   0  0  0  0  0  0  0  0  0  0  0  0
   -5.6003    0.7316   -0.1457 H   0  0  0  0  0  0  0  0  0  0  0  0
    0.4268    1.1883   -0.2695 H   0  0  0  0  0  0  0  0  0  0  0  0
    2.1124   -1.3512    0.2841 H   0  0  0  0  0  0  0  0  0  0  0  0
    2.8449    1.5811   -0.3437 H   0  0  0  0  0  0  0  0  0  0  0  0
    6.1599    0.7309   -0.1873 H   0  0  0  0  0  0  0  0  0  0  0  0
  1 13  1  0  0  0  0
  1 23  1  0  0  0  0
  2 13  2  0  0  0  0
  3  4  2  0  0  0  0
  3  5  1  0  0  0  0
  3  6  1  0  0  0  0
  4  7  1  0  0  0  0
  4 14  1  0  0  0  0
  5  8  2  0  0  0  0
  5 15  1  0  0  0  0
  6 10  2  0  0  0  0
  6 16  1  0  0  0  0
  7  9  2  0  0  0  0
  7 17  1  0  0  0  0
  8  9  1  0  0  0  0
  8 18  1  0  0  0  0
  9 19  1  0  0  0  0
 10 11  1  0  0  0  0
 10 20  1  0  0  0  0
 11 12  2  0  0  0  0
 11 21  1  0  0  0  0
 12 13  1  0  0  0  0
 12 22  1  0  0  0  0
M  END
> <PUBCHEM_COMPOUND_CID>
1549512

> <PUBCHEM_CONFORMER_RMSD>
0.6

> <PUBCHEM_CONFORMER_DIVERSEORDER>
1
3
2

> <PUBCHEM_MMFF94_PARTIAL_CHARGES>
23
1 -0.65
10 -0.15
11 -0.15
12 -0.14
13 0.71
14 0.15
15 0.15
16 0.15
17 0.15
18 0.15
19 0.15
2 -0.57
20 0.15
21 0.15
22 0.15
23 0.5
3 0.03
4 -0.15
5 -0.15
6 -0.18
7 -0.15
8 -0.15
9 -0.15

> <PUBCHEM_EFFECTIVE_ROTOR_COUNT>
3

> <PUBCHEM_PHARMACOPHORE_FEATURES>
4
1 1 acceptor
1 2 acceptor
3 1 2 13 anion
6 3 4 5 7 8 9 rings

> <PUBCHEM_HEAVY_ATOM_COUNT>
13

> <PUBCHEM_ATOM_DEF_STEREO_COUNT>
0

> <PUBCHEM_ATOM_UDEF_STEREO_COUNT>
0

> <PUBCHEM_BOND_DEF_STEREO_COUNT>
2

> <PUBCHEM_BOND_UDEF_STEREO_COUNT>
0

> <PUBCHEM_ISOTOPIC_ATOM_COUNT>
0

> <PUBCHEM_COMPONENT_COUNT>
1

> <PUBCHEM_CACTVS_TAUTO_COUNT>
1

> <PUBCHEM_CONFORMER_ID>
0017A4C800000001

> <PUBCHEM_MMFF94_ENERGY>
30.3501

> <PUBCHEM_FEATURE_SELFOVERLAP>
20.353

> <PUBCHEM_SHAPE_FINGERPRINT>
10014705 185 18261108552473993445
10680689 15 18271812353767493227
10912923 1 18333448746716965384
12107183 9 17688587161269597042
13167823 11 18409727348619623618
13897977 58 18410295817653226685
14123238 8 18060420226730934388
15501527 16 18341054030261053273
17834072 33 18410574015654046238
1986462 14 18413389834614808421
200 152 17775845722631246283
20279233 1 17561089102624652319
20300324 65 18343018908941898089
20645477 56 18342460309948869569
20645477 70 17775012233020621262
22485316 2 18412543219462533846
23402539 116 18343576344115159149
23559900 14 18272086106851688448
300161 21 18334850632753672336
42 15 18335420149606730614
4214541 1 18411136922219977060
42788 4 18410012143663563102
5104073 3 18410573985483832946
542803 24 17894914035657605404
573450 72 18409720738406200202
77779 3 18410575084953281226
9971528 1 17894351077726199100

> <PUBCHEM_SHAPE_MULTIPOLES>
255.8
11.43
1.27
0.62
10.18
0.06
0
0.84
-0.52
-0.7
0.01
-0.06
0
-0.32

> <PUBCHEM_SHAPE_SELFOVERLAP>
528.054

> <PUBCHEM_SHAPE_VOLUME>
146.1

> <PUBCHEM_COORDINATE_TYPE>
2
5
10

$$$$
