11585183
  -OEChem-10241302463D

 83 85  0     1  0  0  0  0  0999 V2000
    1.0099    1.7680    2.0235 O   0  0  0  0  0  0  0  0  0  0  0  0
    1.0469    3.0105    0.0174 O   0  0  0  0  0  0  0  0  0  0  0  0
    3.9866   -0.8661    2.0152 O   0  0  0  0  0  0  0  0  0  0  0  0
   -2.8289    1.4008    0.7168 O   0  0  0  0  0  0  0  0  0  0  0  0
   -4.4277   -0.6382   -0.1237 O   0  0  0  0  0  0  0  0  0  0  0  0
    5.3552   -1.5887   -0.4112 O   0  0  0  0  0  0  0  0  0  0  0  0
    0.5369    4.7511    1.4481 O   0  0  0  0  0  0  0  0  0  0  0  0
    4.4926   -3.1160    1.8778 O   0  0  0  0  0  0  0  0  0  0  0  0
   -5.5929    0.1130   -1.9614 O   0  0  0  0  0  0  0  0  0  0  0  0
    4.1195   -2.9367   -1.8229 O   0  0  0  0  0  0  0  0  0  0  0  0
    1.2305    0.1202   -0.4259 C   0  0  2  0  0  0  0  0  0  0  0  0
   -0.0886    0.8416    0.0284 C   0  0  1  0  0  0  0  0  0  0  0  0
    1.0536   -1.2230   -1.1996 C   0  0  0  0  0  0  0  0  0  0  0  0
    2.1551    0.0177    0.7892 C   0  0  0  0  0  0  0  0  0  0  0  0
    0.2915    2.1117    0.8293 C   0  0  1  0  0  0  0  0  0  0  0  0
   -1.1630    1.1663   -1.0217 C   0  0  0  0  0  0  0  0  0  0  0  0
    0.1002   -2.2940   -0.6221 C   0  0  0  0  0  0  0  0  0  0  0  0
    3.3206   -0.9295    0.7574 C   0  0  1  0  0  0  0  0  0  0  0  0
   -2.6445    0.9765   -0.6379 C   0  0  1  0  0  0  0  0  0  0  0  0
    1.9637    0.7992    1.8666 C   0  0  0  0  0  0  0  0  0  0  0  0
   -3.1970   -0.4712   -0.8166 C   0  0  1  0  0  0  0  0  0  0  0  0
   -1.3075   -2.0639   -1.1245 C   0  0  0  0  0  0  0  0  0  0  0  0
    4.2959   -0.6287   -0.3907 C   0  0  1  0  0  0  0  0  0  0  0  0
   -2.2012   -1.4777   -0.3060 C   0  0  0  0  0  0  0  0  0  0  0  0
   -0.8528    1.6139   -2.2500 C   0  0  0  0  0  0  0  0  0  0  0  0
   -1.5441   -2.3024   -2.5923 C   0  0  0  0  0  0  0  0  0  0  0  0
    4.9284    0.7288   -0.2263 C   0  0  0  0  0  0  0  0  0  0  0  0
    1.0835    4.3052    0.4484 C   0  0  0  0  0  0  0  0  0  0  0  0
    4.5293   -2.0393    2.4577 C   0  0  0  0  0  0  0  0  0  0  0  0
    4.9132    1.7533   -1.1005 C   0  0  0  0  0  0  0  0  0  0  0  0
   -5.5526   -0.3076   -0.8155 C   0  0  0  0  0  0  0  0  0  0  0  0
    1.9073    5.1279   -0.4954 C   0  0  0  0  0  0  0  0  0  0  0  0
    5.1276   -2.6978   -1.1720 C   0  0  0  0  0  0  0  0  0  0  0  0
    5.1934   -1.8224    3.7837 C   0  0  0  0  0  0  0  0  0  0  0  0
    5.5762    3.0604   -0.7556 C   0  0  0  0  0  0  0  0  0  0  0  0
    4.2793    1.7194   -2.4623 C   0  0  0  0  0  0  0  0  0  0  0  0
   -6.7638   -0.5246    0.0153 C   0  0  0  0  0  0  0  0  0  0  0  0
    6.3153   -3.6089   -1.0996 C   0  0  0  0  0  0  0  0  0  0  0  0
   -8.0269   -0.2449   -0.5065 C   0  0  0  0  0  0  0  0  0  0  0  0
   -6.6388   -1.0088    1.3176 C   0  0  0  0  0  0  0  0  0  0  0  0
   -9.1648   -0.4489    0.2739 C   0  0  0  0  0  0  0  0  0  0  0  0
   -7.7770   -1.2130    2.0978 C   0  0  0  0  0  0  0  0  0  0  0  0
   -9.0399   -0.9331    1.5759 C   0  0  0  0  0  0  0  0  0  0  0  0
    1.7518    0.7845   -1.1286 H   0  0  0  0  0  0  0  0  0  0  0  0
   -0.5425    0.1730    0.7681 H   0  0  0  0  0  0  0  0  0  0  0  0
    2.0125   -1.7169   -1.3434 H   0  0  0  0  0  0  0  0  0  0  0  0
    0.7523   -0.9663   -2.2225 H   0  0  0  0  0  0  0  0  0  0  0  0
   -0.6235    2.6135    1.1621 H   0  0  0  0  0  0  0  0  0  0  0  0
    0.4252   -3.2893   -0.9495 H   0  0  0  0  0  0  0  0  0  0  0  0
    0.1559   -2.3000    0.4726 H   0  0  0  0  0  0  0  0  0  0  0  0
    2.9112   -1.9399    0.6369 H   0  0  0  0  0  0  0  0  0  0  0  0
   -3.2747    1.6448   -1.2391 H   0  0  0  0  0  0  0  0  0  0  0  0
    2.5521    0.7730    2.7742 H   0  0  0  0  0  0  0  0  0  0  0  0
   -3.3509   -0.6317   -1.8898 H   0  0  0  0  0  0  0  0  0  0  0  0
    3.7764   -0.6588   -1.3471 H   0  0  0  0  0  0  0  0  0  0  0  0
   -1.9853   -1.4099    0.7585 H   0  0  0  0  0  0  0  0  0  0  0  0
    0.1743    1.7716   -2.5585 H   0  0  0  0  0  0  0  0  0  0  0  0
   -1.6255    1.8366   -2.9786 H   0  0  0  0  0  0  0  0  0  0  0  0
   -1.0094   -3.2001   -2.9212 H   0  0  0  0  0  0  0  0  0  0  0  0
   -2.6027   -2.4817   -2.8068 H   0  0  0  0  0  0  0  0  0  0  0  0
   -1.2046   -1.4574   -3.1974 H   0  0  0  0  0  0  0  0  0  0  0  0
   -2.7656    2.3712    0.7287 H   0  0  0  0  0  0  0  0  0  0  0  0
    5.4535    0.8810    0.7164 H   0  0  0  0  0  0  0  0  0  0  0  0
    1.8551    4.7198   -1.5088 H   0  0  0  0  0  0  0  0  0  0  0  0
    1.5079    6.1454   -0.5267 H   0  0  0  0  0  0  0  0  0  0  0  0
    2.9432    5.1466   -0.1522 H   0  0  0  0  0  0  0  0  0  0  0  0
    4.4564   -1.4828    4.5156 H   0  0  0  0  0  0  0  0  0  0  0  0
    5.6230   -2.7657    4.1329 H   0  0  0  0  0  0  0  0  0  0  0  0
    5.9981   -1.0905    3.6787 H   0  0  0  0  0  0  0  0  0  0  0  0
    4.8580    3.8817   -0.8317 H   0  0  0  0  0  0  0  0  0  0  0  0
    5.9815    3.0681    0.2617 H   0  0  0  0  0  0  0  0  0  0  0  0
    6.4030    3.2587   -1.4456 H   0  0  0  0  0  0  0  0  0  0  0  0
    3.4173    2.3944   -2.4889 H   0  0  0  0  0  0  0  0  0  0  0  0
    4.9989    2.0566   -3.2165 H   0  0  0  0  0  0  0  0  0  0  0  0
    3.9401    0.7323   -2.7788 H   0  0  0  0  0  0  0  0  0  0  0  0
    7.1920   -3.1073   -1.5168 H   0  0  0  0  0  0  0  0  0  0  0  0
    6.1164   -4.5106   -1.6859 H   0  0  0  0  0  0  0  0  0  0  0  0
    6.4976   -3.9032   -0.0631 H   0  0  0  0  0  0  0  0  0  0  0  0
   -8.1457    0.1329   -1.5185 H   0  0  0  0  0  0  0  0  0  0  0  0
   -5.6758   -1.2398    1.7639 H   0  0  0  0  0  0  0  0  0  0  0  0
  -10.1483   -0.2310   -0.1322 H   0  0  0  0  0  0  0  0  0  0  0  0
   -7.6805   -1.5900    3.1119 H   0  0  0  0  0  0  0  0  0  0  0  0
   -9.9260   -1.0921    2.1835 H   0  0  0  0  0  0  0  0  0  0  0  0
  1 15  1  0  0  0  0
  1 20  1  0  0  0  0
  2 15  1  0  0  0  0
  2 28  1  0  0  0  0
  3 18  1  0  0  0  0
  3 29  1  0  0  0  0
  4 19  1  0  0  0  0
  4 62  1  0  0  0  0
  5 21  1  0  0  0  0
  5 31  1  0  0  0  0
  6 23  1  0  0  0  0
  6 33  1  0  0  0  0
  7 28  2  0  0  0  0
  8 29  2  0  0  0  0
  9 31  2  0  0  0  0
 10 33  2  0  0  0  0
 11 12  1  0  0  0  0
 11 13  1  0  0  0  0
 11 14  1  0  0  0  0
 11 44  1  0  0  0  0
 12 15  1  0  0  0  0
 12 16  1  0  0  0  0
 12 45  1  0  0  0  0
 13 17  1  0  0  0  0
 13 46  1  0  0  0  0
 13 47  1  0  0  0  0
 14 18  1  0  0  0  0
 14 20  2  0  0  0  0
 15 48  1  0  0  0  0
 16 19  1  0  0  0  0
 16 25  2  0  0  0  0
 17 22  1  0  0  0  0
 17 49  1  0  0  0  0
 17 50  1  0  0  0  0
 18 23  1  0  0  0  0
 18 51  1  0  0  0  0
 19 21  1  0  0  0  0
 19 52  1  0  0  0  0
 20 53  1  0  0  0  0
 21 24  1  0  0  0  0
 21 54  1  0  0  0  0
 22 24  2  0  0  0  0
 22 26  1  0  0  0  0
 23 27  1  0  0  0  0
 23 55  1  0  0  0  0
 24 56  1  0  0  0  0
 25 57  1  0  0  0  0
 25 58  1  0  0  0  0
 26 59  1  0  0  0  0
 26 60  1  0  0  0  0
 26 61  1  0  0  0  0
 27 30  2  0  0  0  0
 27 63  1  0  0  0  0
 28 32  1  0  0  0  0
 29 34  1  0  0  0  0
 30 35  1  0  0  0  0
 30 36  1  0  0  0  0
 31 37  1  0  0  0  0
 32 64  1  0  0  0  0
 32 65  1  0  0  0  0
 32 66  1  0  0  0  0
 33 38  1  0  0  0  0
 34 67  1  0  0  0  0
 34 68  1  0  0  0  0
 34 69  1  0  0  0  0
 35 70  1  0  0  0  0
 35 71  1  0  0  0  0
 35 72  1  0  0  0  0
 36 73  1  0  0  0  0
 36 74  1  0  0  0  0
 36 75  1  0  0  0  0
 37 39  2  0  0  0  0
 37 40  1  0  0  0  0
 38 76  1  0  0  0  0
 38 77  1  0  0  0  0
 38 78  1  0  0  0  0
 39 41  1  0  0  0  0
 39 79  1  0  0  0  0
 40 42  2  0  0  0  0
 40 80  1  0  0  0  0
 41 43  2  0  0  0  0
 41 81  1  0  0  0  0
 42 43  1  0  0  0  0
 42 82  1  0  0  0  0
 43 83  1  0  0  0  0
M  END
> <PUBCHEM_COMPOUND_CID>
11585183

> <PUBCHEM_CONFORMER_RMSD>
1.2

> <PUBCHEM_CONFORMER_DIVERSEORDER>
1
7
6
3
10
5
4
9
2
11
8

> <PUBCHEM_MMFF94_PARTIAL_CHARGES>
53
1 -0.36
10 -0.57
11 0.14
12 0.14
14 -0.28
15 0.56
16 -0.28
17 0.14
18 0.42
19 0.42
2 -0.43
20 -0.07
21 0.42
22 -0.28
23 0.42
24 -0.29
25 -0.3
26 0.14
27 -0.29
28 0.66
29 0.66
3 -0.43
30 -0.28
31 0.63
32 0.06
33 0.66
34 0.06
35 0.14
36 0.14
37 0.09
38 0.06
39 -0.15
4 -0.68
40 -0.15
41 -0.15
42 -0.15
43 -0.15
5 -0.43
53 0.15
56 0.15
57 0.15
58 0.15
6 -0.43
62 0.4
63 0.15
7 -0.57
79 0.15
8 -0.57
80 0.15
81 0.15
82 0.15
83 0.15
9 -0.57

> <PUBCHEM_EFFECTIVE_ROTOR_COUNT>
13.2

> <PUBCHEM_PHARMACOPHORE_FEATURES>
10
1 1 acceptor
1 10 acceptor
1 4 acceptor
1 4 donor
1 7 acceptor
1 8 acceptor
1 9 acceptor
3 30 35 36 hydrophobe
6 1 11 12 14 15 20 rings
6 37 39 40 41 42 43 rings

> <PUBCHEM_HEAVY_ATOM_COUNT>
43

> <PUBCHEM_ATOM_DEF_STEREO_COUNT>
7

> <PUBCHEM_ATOM_UDEF_STEREO_COUNT>
0

> <PUBCHEM_BOND_DEF_STEREO_COUNT>
1

> <PUBCHEM_BOND_UDEF_STEREO_COUNT>
0

> <PUBCHEM_ISOTOPIC_ATOM_COUNT>
0

> <PUBCHEM_COMPONENT_COUNT>
1

> <PUBCHEM_CACTVS_TAUTO_COUNT>
1

> <PUBCHEM_CONFORMER_ID>
00B0C69F00000001

> <PUBCHEM_MMFF94_ENERGY>
115.6268

> <PUBCHEM_FEATURE_SELFOVERLAP>
50.75

> <PUBCHEM_SHAPE_FINGERPRINT>
10675989 125 18123191466095343324
13540713 5 17840851182427940447
13560911 43 18261671472837416846
13782708 43 17894905231618694563
13811026 1 18409165485693471671
14114211 68 17822869683742596300
14849402 71 18200321038952833345
14955137 171 18413393133366158063
19319366 153 18187639245751613802
22149856 69 18131074788397893641
23559900 14 17916585500025230629
3178227 256 18341337760216608179
4149490 64 17458336464481552442
70251023 43 18337961074245382322

> <PUBCHEM_SHAPE_MULTIPOLES>
826.23
20.49
4.71
2.56
47.69
4.89
-1.23
-11.98
-5.19
-9.21
-0.11
-2.34
-1.36
-0.62

> <PUBCHEM_SHAPE_SELFOVERLAP>
1720.749

> <PUBCHEM_SHAPE_VOLUME>
460.9

> <PUBCHEM_COORDINATE_TYPE>
2
5
10

$$$$
