2775094
  -OEChem-10241303073D

 28 28  0     0  0  0  0  0  0999 V2000
   -3.6602   -0.4251   -0.1529 O   0  0  0  0  0  0  0  0  0  0  0  0
    0.5136    0.3229   -0.2648 C   0  0  0  0  0  0  0  0  0  0  0  0
    0.0233   -1.0233    0.2863 C   0  0  0  0  0  0  0  0  0  0  0  0
   -0.4165    1.4645    0.1687 C   0  0  0  0  0  0  0  0  0  0  0  0
   -1.4274   -1.2943   -0.1013 C   0  0  0  0  0  0  0  0  0  0  0  0
   -1.8660    1.1865   -0.2182 C   0  0  0  0  0  0  0  0  0  0  0  0
   -2.3483   -0.1554    0.3288 C   0  0  0  0  0  0  0  0  0  0  0  0
    1.9485    0.5977    0.1812 C   0  0  0  0  0  0  0  0  0  0  0  0
    2.9046   -0.4663   -0.3468 C   0  0  0  0  0  0  0  0  0  0  0  0
    4.3283   -0.2072    0.1189 C   0  0  0  0  0  0  0  0  0  0  0  0
    0.4939    0.2726   -1.3624 H   0  0  0  0  0  0  0  0  0  0  0  0
    0.1170   -1.0405    1.3794 H   0  0  0  0  0  0  0  0  0  0  0  0
    0.6170   -1.8557   -0.1026 H   0  0  0  0  0  0  0  0  0  0  0  0
   -0.0942    2.4057   -0.2922 H   0  0  0  0  0  0  0  0  0  0  0  0
   -0.3541    1.6050    1.2554 H   0  0  0  0  0  0  0  0  0  0  0  0
   -1.5027   -1.4421   -1.1867 H   0  0  0  0  0  0  0  0  0  0  0  0
   -1.7675   -2.2348    0.3491 H   0  0  0  0  0  0  0  0  0  0  0  0
   -2.5128    1.9917    0.1508 H   0  0  0  0  0  0  0  0  0  0  0  0
   -1.9705    1.2001   -1.3109 H   0  0  0  0  0  0  0  0  0  0  0  0
   -2.3952   -0.1174    1.4237 H   0  0  0  0  0  0  0  0  0  0  0  0
    2.0026    0.6361    1.2766 H   0  0  0  0  0  0  0  0  0  0  0  0
    2.2654    1.5818   -0.1864 H   0  0  0  0  0  0  0  0  0  0  0  0
    2.8787   -0.4871   -1.4424 H   0  0  0  0  0  0  0  0  0  0  0  0
    2.6340   -1.4643    0.0079 H   0  0  0  0  0  0  0  0  0  0  0  0
   -4.2332    0.3069    0.1325 H   0  0  0  0  0  0  0  0  0  0  0  0
    4.6859    0.7654   -0.2343 H   0  0  0  0  0  0  0  0  0  0  0  0
    4.3936   -0.2213    1.2117 H   0  0  0  0  0  0  0  0  0  0  0  0
    5.0014   -0.9773   -0.2711 H   0  0  0  0  0  0  0  0  0  0  0  0
  1  7  1  0  0  0  0
  1 25  1  0  0  0  0
  2  3  1  0  0  0  0
  2  4  1  0  0  0  0
  2  8  1  0  0  0  0
  2 11  1  0  0  0  0
  3  5  1  0  0  0  0
  3 12  1  0  0  0  0
  3 13  1  0  0  0  0
  4  6  1  0  0  0  0
  4 14  1  0  0  0  0
  4 15  1  0  0  0  0
  5  7  1  0  0  0  0
  5 16  1  0  0  0  0
  5 17  1  0  0  0  0
  6  7  1  0  0  0  0
  6 18  1  0  0  0  0
  6 19  1  0  0  0  0
  7 20  1  0  0  0  0
  8  9  1  0  0  0  0
  8 21  1  0  0  0  0
  8 22  1  0  0  0  0
  9 10  1  0  0  0  0
  9 23  1  0  0  0  0
  9 24  1  0  0  0  0
 10 26  1  0  0  0  0
 10 27  1  0  0  0  0
 10 28  1  0  0  0  0
M  END
> <PUBCHEM_COMPOUND_CID>
2775094

> <PUBCHEM_CONFORMER_RMSD>
0.6

> <PUBCHEM_CONFORMER_DIVERSEORDER>
1
11
13
9
16
10
5
15
3
7
6
17
8
14
2
12
4

> <PUBCHEM_MMFF94_PARTIAL_CHARGES>
3
1 -0.68
25 0.4
7 0.28

> <PUBCHEM_EFFECTIVE_ROTOR_COUNT>
3.2

> <PUBCHEM_PHARMACOPHORE_FEATURES>
4
1 1 acceptor
1 1 donor
1 10 hydrophobe
6 2 3 4 5 6 7 rings

> <PUBCHEM_HEAVY_ATOM_COUNT>
10

> <PUBCHEM_ATOM_DEF_STEREO_COUNT>
0

> <PUBCHEM_ATOM_UDEF_STEREO_COUNT>
0

> <PUBCHEM_BOND_DEF_STEREO_COUNT>
0

> <PUBCHEM_BOND_UDEF_STEREO_COUNT>
0

> <PUBCHEM_ISOTOPIC_ATOM_COUNT>
0

> <PUBCHEM_COMPONENT_COUNT>
1

> <PUBCHEM_CACTVS_TAUTO_COUNT>
1

> <PUBCHEM_CONFORMER_ID>
002A583600000001

> <PUBCHEM_MMFF94_ENERGY>
7.8947

> <PUBCHEM_FEATURE_SELFOVERLAP>
20.297

> <PUBCHEM_SHAPE_FINGERPRINT>
11062470 55 14908183049143492138
12032990 46 18337115660871690907
12932764 1 13901902255287530026
13024252 1 17676207970200355801
13690532 89 18334293171314956546
14325111 11 18337673018851402836
14993402 34 17603309254114952806
16945 1 18408895030948597707
190213 19 17240204335287899050
20201158 50 18272373066195914694
20871998 184 18201443617963681190
21293036 1 18333448750616313102
23402539 116 18130780157857292349
23402655 69 18194663888651414253
23552423 10 18115871974006190212
2748010 2 18048877695465131875
369184 2 14764348215026097718
5084963 1 18412829087832124777
6333449 129 18341610382553630228

> <PUBCHEM_SHAPE_MULTIPOLES>
199.93
5.95
1.34
0.66
4.14
0.14
0
-0.89
-0.08
-0.56
0.01
0.04
0
0.06

> <PUBCHEM_SHAPE_SELFOVERLAP>
380.773

> <PUBCHEM_SHAPE_VOLUME>
122.9

> <PUBCHEM_COORDINATE_TYPE>
2
5
10

$$$$
