6913663
  -OEChem-10241303123D

 49 50  0     0  0  0  0  0  0999 V2000
    3.4862    0.4618    0.2567 O   0  0  0  0  0  0  0  0  0  0  0  0
  -11.4200    0.6434    0.0358 O   0  0  0  0  0  0  0  0  0  0  0  0
  -10.3339   -1.3190   -0.3632 O   0  0  0  0  0  0  0  0  0  0  0  0
    8.6088    1.8240   -0.6116 N   0  0  0  0  0  0  0  0  0  0  0  0
    9.2860    0.7937   -0.7644 N   0  0  0  0  0  0  0  0  0  0  0  0
   -2.7055   -0.2823    0.0010 C   0  0  0  0  0  0  0  0  0  0  0  0
   -3.9560    0.5885    0.1348 C   0  0  0  0  0  0  0  0  0  0  0  0
   -1.4310    0.5409    0.1950 C   0  0  0  0  0  0  0  0  0  0  0  0
   -5.2300   -0.2286   -0.0923 C   0  0  0  0  0  0  0  0  0  0  0  0
   -0.1817   -0.3359    0.0946 C   0  0  0  0  0  0  0  0  0  0  0  0
   -6.4802    0.6377    0.0750 C   0  0  0  0  0  0  0  0  0  0  0  0
    1.0919    0.4913    0.2547 C   0  0  0  0  0  0  0  0  0  0  0  0
   -7.7901   -0.1343   -0.1203 C   0  0  0  0  0  0  0  0  0  0  0  0
    2.3410   -0.3669    0.1131 C   0  0  0  0  0  0  0  0  0  0  0  0
   -9.0587    0.7025    0.0162 C   0  0  0  0  0  0  0  0  0  0  0  0
    4.7087   -0.1528    0.1742 C   0  0  0  0  0  0  0  0  0  0  0  0
    7.1209   -0.0282    0.2218 C   0  0  0  0  0  0  0  0  0  0  0  0
    8.3695    0.7736    0.3609 C   0  0  0  0  0  0  0  0  0  0  0  0
    5.8772    0.5975    0.3060 C   0  0  0  0  0  0  0  0  0  0  0  0
  -10.3114   -0.1193   -0.1276 C   0  0  0  0  0  0  0  0  0  0  0  0
    4.7842   -1.5288   -0.0414 C   0  0  0  0  0  0  0  0  0  0  0  0
    7.1963   -1.4042    0.0063 C   0  0  0  0  0  0  0  0  0  0  0  0
    6.0279   -2.1546   -0.1254 C   0  0  0  0  0  0  0  0  0  0  0  0
   -2.7399   -1.0888    0.7435 H   0  0  0  0  0  0  0  0  0  0  0  0
   -2.6895   -0.7544   -0.9889 H   0  0  0  0  0  0  0  0  0  0  0  0
   -3.9813    1.0413    1.1335 H   0  0  0  0  0  0  0  0  0  0  0  0
   -3.9133    1.4092   -0.5916 H   0  0  0  0  0  0  0  0  0  0  0  0
   -1.3880    1.3325   -0.5630 H   0  0  0  0  0  0  0  0  0  0  0  0
   -1.4550    1.0326    1.1751 H   0  0  0  0  0  0  0  0  0  0  0  0
   -5.2167   -0.6635   -1.0988 H   0  0  0  0  0  0  0  0  0  0  0  0
   -5.2658   -1.0615    0.6202 H   0  0  0  0  0  0  0  0  0  0  0  0
   -0.2150   -1.1148    0.8660 H   0  0  0  0  0  0  0  0  0  0  0  0
   -0.1694   -0.8438   -0.8774 H   0  0  0  0  0  0  0  0  0  0  0  0
   -6.4451    1.4659   -0.6436 H   0  0  0  0  0  0  0  0  0  0  0  0
   -6.4799    1.0871    1.0758 H   0  0  0  0  0  0  0  0  0  0  0  0
    1.1190    1.2948   -0.4923 H   0  0  0  0  0  0  0  0  0  0  0  0
    1.1005    0.9906    1.2316 H   0  0  0  0  0  0  0  0  0  0  0  0
   -7.7788   -0.6058   -1.1117 H   0  0  0  0  0  0  0  0  0  0  0  0
   -7.8226   -0.9574    0.6057 H   0  0  0  0  0  0  0  0  0  0  0  0
    2.3306   -0.8333   -0.8800 H   2  0  0  0  0  0  0  0  0  0  0  0
    2.3201   -1.1321    0.8993 H   0  0  0  0  0  0  0  0  0  0  0  0
   -9.0688    1.4821   -0.7534 H   0  0  0  0  0  0  0  0  0  0  0  0
   -9.0761    1.1787    1.0029 H   0  0  0  0  0  0  0  0  0  0  0  0
    8.8119    0.9193    1.3382 H   0  0  0  0  0  0  0  0  0  0  0  0
    5.8117    1.6695    0.4759 H   0  0  0  0  0  0  0  0  0  0  0  0
    3.9195   -2.1736   -0.1546 H   0  0  0  0  0  0  0  0  0  0  0  0
    8.1596   -1.9033   -0.0590 H   0  0  0  0  0  0  0  0  0  0  0  0
    6.0878   -3.2261   -0.2932 H   0  0  0  0  0  0  0  0  0  0  0  0
  -12.2433    0.1180   -0.0569 H   0  0  0  0  0  0  0  0  0  0  0  0
  1 14  1  0  0  0  0
  1 16  1  0  0  0  0
  2 20  1  0  0  0  0
  2 49  1  0  0  0  0
  3 20  2  0  0  0  0
  4  5  2  0  0  0  0
  4 18  1  0  0  0  0
  5 18  1  0  0  0  0
  6  7  1  0  0  0  0
  6  8  1  0  0  0  0
  6 24  1  0  0  0  0
  6 25  1  0  0  0  0
  7  9  1  0  0  0  0
  7 26  1  0  0  0  0
  7 27  1  0  0  0  0
  8 10  1  0  0  0  0
  8 28  1  0  0  0  0
  8 29  1  0  0  0  0
  9 11  1  0  0  0  0
  9 30  1  0  0  0  0
  9 31  1  0  0  0  0
 10 12  1  0  0  0  0
 10 32  1  0  0  0  0
 10 33  1  0  0  0  0
 11 13  1  0  0  0  0
 11 34  1  0  0  0  0
 11 35  1  0  0  0  0
 12 14  1  0  0  0  0
 12 36  1  0  0  0  0
 12 37  1  0  0  0  0
 13 15  1  0  0  0  0
 13 38  1  0  0  0  0
 13 39  1  0  0  0  0
 14 40  1  0  0  0  0
 14 41  1  0  0  0  0
 15 20  1  0  0  0  0
 15 42  1  0  0  0  0
 15 43  1  0  0  0  0
 16 19  1  0  0  0  0
 16 21  2  0  0  0  0
 17 18  1  0  0  0  0
 17 19  2  0  0  0  0
 17 22  1  0  0  0  0
 18 44  1  0  0  0  0
 19 45  1  0  0  0  0
 21 23  1  0  0  0  0
 21 46  1  0  0  0  0
 22 23  2  0  0  0  0
 22 47  1  0  0  0  0
 23 48  1  0  0  0  0
M  ISO  1  40   3
M  END
> <PUBCHEM_COMPOUND_CID>
6913663

> <PUBCHEM_CONFORMER_RMSD>
1.2

> <PUBCHEM_CONFORMER_DIVERSEORDER>
2
53
58
69
64
28
51
35
12
19
15
82
87
22
46
9
57
90
16
59
32
76
29
79
34
67
81
21
56
11
60
62
24
25
30
73
14
44
1
63
89
68
37
4
55
72
49
45
20
17
71
66
26
27
52
48
41
50
80
86
13
8
23
75
31
92
40
54
7
65
88
47
78
61
3
83
77
70
18
36
10
74
43
33
85
6
42
84
91
39
5
38

> <PUBCHEM_MMFF94_PARTIAL_CHARGES>
21
1 -0.36
14 0.28
15 0.06
16 0.08
17 -0.03
18 0.35
19 -0.15
2 -0.65
20 0.66
21 -0.15
22 -0.15
23 -0.15
3 -0.57
4 -0.21
44 0.1
45 0.15
46 0.15
47 0.15
48 0.15
49 0.5
5 -0.21

> <PUBCHEM_EFFECTIVE_ROTOR_COUNT>
13.2

> <PUBCHEM_PHARMACOPHORE_FEATURES>
5
1 1 acceptor
1 2 acceptor
1 3 acceptor
3 2 3 20 anion
6 16 17 19 21 22 23 rings

> <PUBCHEM_HEAVY_ATOM_COUNT>
23

> <PUBCHEM_ATOM_DEF_STEREO_COUNT>
0

> <PUBCHEM_ATOM_UDEF_STEREO_COUNT>
1

> <PUBCHEM_BOND_DEF_STEREO_COUNT>
0

> <PUBCHEM_BOND_UDEF_STEREO_COUNT>
0

> <PUBCHEM_ISOTOPIC_ATOM_COUNT>
1

> <PUBCHEM_COMPONENT_COUNT>
1

> <PUBCHEM_CACTVS_TAUTO_COUNT>
1

> <PUBCHEM_CONFORMER_ID>
00697E7F00000002

> <PUBCHEM_MMFF94_ENERGY>
32.1959

> <PUBCHEM_FEATURE_SELFOVERLAP>
25.428

> <PUBCHEM_SHAPE_FINGERPRINT>
10299344 5 17988922266757718887
11135609 127 18115312301788660204
11315181 36 18342178865300492617
12089408 11 18272370837397778785
12522641 33 17703793604893601063
14251764 18 17917994962362772248
14251764 46 18186801378972460769
14251920 17 18336547209582485364
15061470 23 18335419050923726221
15510794 2 18113902662739754683
155225 1 18260268582052902764
16120349 18 18335139821719039284
21362267 2 18041829726921228532
21362267 313 17969493810596168065
232437 2 18273214201719064087
23581129 1 18409448089539718809
249057 3 16588029030863987891
335352 9 18201998846303966573
33684 2 18259983769390178729
4073 2 18187089481722669298
59520647 119 18410293648954237863
59520757 100 16226342498832118490
67123 10 18410855465071969073
8209 1 18411981356140989841
9663363 56 16225764125223432948

> <PUBCHEM_SHAPE_MULTIPOLES>
445.76
43.92
1.37
0.66
78.07
0.41
-0.01
-3.42
-4.13
-2.87
-0.12
-0.39
-0.04
-0.59

> <PUBCHEM_SHAPE_SELFOVERLAP>
888.188

> <PUBCHEM_SHAPE_VOLUME>
262.2

> <PUBCHEM_COORDINATE_TYPE>
2
5
10

$$$$
