191555
  -OEChem-10241302543D

 43 45  0     1  0  0  0  0  0999 V2000
   -4.3489    1.3322    0.0216 O   0  0  0  0  0  0  0  0  0  0  0  0
    0.9618    1.9687   -1.7935 O   0  0  0  0  0  0  0  0  0  0  0  0
    5.1085    0.1713    1.1597 O   0  0  0  0  0  0  0  0  0  0  0  0
   -1.7005   -1.0319    0.0584 C   0  0  2  0  0  0  0  0  0  0  0  0
   -2.5923   -0.0981    0.9236 C   0  0  1  0  0  0  0  0  0  0  0  0
   -0.5575   -0.3174   -0.7318 C   0  0  1  0  0  0  0  0  0  0  0  0
    0.1548    0.7484    0.1298 C   0  0  2  0  0  0  0  0  0  0  0  0
   -1.8551    1.0657    1.5905 C   0  0  0  0  0  0  0  0  0  0  0  0
   -2.7133   -1.6813   -0.9069 C   0  0  0  0  0  0  0  0  0  0  0  0
   -0.8523    1.7551    0.6813 C   0  0  0  0  0  0  0  0  0  0  0  0
   -3.6222    0.3542   -0.1050 C   0  0  0  0  0  0  0  0  0  0  0  0
   -3.6660   -0.5573   -1.3060 C   0  0  0  0  0  0  0  0  0  0  0  0
   -3.3561   -0.8827    2.0074 C   0  0  0  0  0  0  0  0  0  0  0  0
    0.4405   -1.3336   -1.3568 C   0  0  0  0  0  0  0  0  0  0  0  0
    1.1986    1.5282   -0.6674 C   0  0  0  0  0  0  0  0  0  0  0  0
    2.5513    1.7495   -0.0176 C   0  0  0  0  0  0  0  0  0  0  0  0
    1.2286   -2.1533   -0.3752 C   0  0  0  0  0  0  0  0  0  0  0  0
    3.5975    0.8020   -0.5897 C   0  0  0  0  0  0  0  0  0  0  0  0
    2.3780   -1.8103    0.1319 C   0  0  0  0  0  0  0  0  0  0  0  0
    4.1407   -0.1431    0.4655 C   0  0  0  0  0  0  0  0  0  0  0  0
    3.5039   -1.4663    0.6802 C   0  0  0  0  0  0  0  0  0  0  0  0
   -1.2565   -1.8019    0.7004 H   0  0  0  0  0  0  0  0  0  0  0  0
   -1.0113    0.2089   -1.5836 H   0  0  0  0  0  0  0  0  0  0  0  0
    0.6560    0.2596    0.9731 H   0  0  0  0  0  0  0  0  0  0  0  0
   -1.3164    0.6961    2.4734 H   0  0  0  0  0  0  0  0  0  0  0  0
   -2.5699    1.8130    1.9570 H   0  0  0  0  0  0  0  0  0  0  0  0
   -3.2692   -2.4725   -0.3896 H   0  0  0  0  0  0  0  0  0  0  0  0
   -2.2591   -2.1457   -1.7856 H   0  0  0  0  0  0  0  0  0  0  0  0
   -1.3747    2.2659   -0.1377 H   0  0  0  0  0  0  0  0  0  0  0  0
   -0.3317    2.5377    1.2475 H   0  0  0  0  0  0  0  0  0  0  0  0
   -4.6781   -0.9306   -1.4774 H   0  0  0  0  0  0  0  0  0  0  0  0
   -3.3031   -0.0131   -2.1821 H   0  0  0  0  0  0  0  0  0  0  0  0
   -2.6618   -1.3745    2.6976 H   0  0  0  0  0  0  0  0  0  0  0  0
   -3.9959   -0.2129    2.5946 H   0  0  0  0  0  0  0  0  0  0  0  0
   -4.0131   -1.6514    1.5873 H   0  0  0  0  0  0  0  0  0  0  0  0
    1.1315   -0.8063   -2.0258 H   0  0  0  0  0  0  0  0  0  0  0  0
   -0.0993   -2.0276   -2.0108 H   0  0  0  0  0  0  0  0  0  0  0  0
    2.8329    2.7886   -0.2278 H   0  0  0  0  0  0  0  0  0  0  0  0
    2.4554    1.6716    1.0706 H   0  0  0  0  0  0  0  0  0  0  0  0
    0.7754   -3.0796   -0.0334 H   0  0  0  0  0  0  0  0  0  0  0  0
    4.4548    1.3832   -0.9536 H   0  0  0  0  0  0  0  0  0  0  0  0
    3.2426    0.2356   -1.4567 H   0  0  0  0  0  0  0  0  0  0  0  0
    3.9855   -2.1320    1.3886 H   0  0  0  0  0  0  0  0  0  0  0  0
  1 11  2  0  0  0  0
  2 15  2  0  0  0  0
  3 20  2  0  0  0  0
  4  5  1  0  0  0  0
  4  6  1  0  0  0  0
  4  9  1  0  0  0  0
  4 22  1  0  0  0  0
  5  8  1  0  0  0  0
  5 11  1  0  0  0  0
  5 13  1  0  0  0  0
  6  7  1  0  0  0  0
  6 14  1  0  0  0  0
  6 23  1  0  0  0  0
  7 10  1  0  0  0  0
  7 15  1  0  0  0  0
  7 24  1  0  0  0  0
  8 10  1  0  0  0  0
  8 25  1  0  0  0  0
  8 26  1  0  0  0  0
  9 12  1  0  0  0  0
  9 27  1  0  0  0  0
  9 28  1  0  0  0  0
 10 29  1  0  0  0  0
 10 30  1  0  0  0  0
 11 12  1  0  0  0  0
 12 31  1  0  0  0  0
 12 32  1  0  0  0  0
 13 33  1  0  0  0  0
 13 34  1  0  0  0  0
 13 35  1  0  0  0  0
 14 17  1  0  0  0  0
 14 36  1  0  0  0  0
 14 37  1  0  0  0  0
 15 16  1  0  0  0  0
 16 18  1  0  0  0  0
 16 38  1  0  0  0  0
 16 39  1  0  0  0  0
 17 19  2  0  0  0  0
 17 40  1  0  0  0  0
 18 20  1  0  0  0  0
 18 41  1  0  0  0  0
 18 42  1  0  0  0  0
 19 21  2  0  0  0  0
 20 21  1  0  0  0  0
 21 43  1  0  0  0  0
M  END
> <PUBCHEM_COMPOUND_CID>
191555

> <PUBCHEM_CONFORMER_RMSD>
0.6

> <PUBCHEM_CONFORMER_DIVERSEORDER>
1
60
79
11
67
64
48
78
49
14
80
15
17
58
40
32
73
35
66
47
30
43
56
12
65
59
27
20
22
8
51
46
50
74
53
52
39
34
62
33
13
57
7
38
2
55
75
21
37
54
29
3
25
24
63
28
10
70
6
76
23
42
5
44
9
72
36
31
45
41
26
68
18
61
77
19
69
71
4
16

> <PUBCHEM_MMFF94_PARTIAL_CHARGES>
17
1 -0.57
11 0.45
12 0.06
14 0.14
15 0.45
16 0.06
17 -0.22
18 0.06
19 -0.13
2 -0.57
20 0.49
21 -0.07
3 -0.57
40 0.15
43 0.15
5 0.06
7 0.06

> <PUBCHEM_EFFECTIVE_ROTOR_COUNT>
1.4

> <PUBCHEM_PHARMACOPHORE_FEATURES>
5
1 1 acceptor
1 2 acceptor
1 3 acceptor
5 4 5 9 11 12 rings
6 4 5 6 7 8 10 rings

> <PUBCHEM_HEAVY_ATOM_COUNT>
21

> <PUBCHEM_ATOM_DEF_STEREO_COUNT>
0

> <PUBCHEM_ATOM_UDEF_STEREO_COUNT>
4

> <PUBCHEM_BOND_DEF_STEREO_COUNT>
0

> <PUBCHEM_BOND_UDEF_STEREO_COUNT>
0

> <PUBCHEM_ISOTOPIC_ATOM_COUNT>
0

> <PUBCHEM_COMPONENT_COUNT>
1

> <PUBCHEM_CACTVS_TAUTO_COUNT>
12

> <PUBCHEM_CONFORMER_ID>
0002EC4300000001

> <PUBCHEM_MMFF94_ENERGY>
48.8452

> <PUBCHEM_FEATURE_SELFOVERLAP>
25.548

> <PUBCHEM_SHAPE_FINGERPRINT>
10062212 137 18271520983386553823
10498660 4 17775281651480500802
11132069 177 18202846547819528014
11244481 83 15503235529602628030
12011746 2 18338520746764424926
12236239 1 18201996642358223638
12553582 1 18338811082100489408
12633257 1 17676196983885139682
13140716 1 18127978713487392698
13224815 77 18060425719804422746
13583140 156 18187653552076413865
14787075 74 17631724006426919992
15463212 79 16744261085706732108
15536298 74 18131636647451012838
16945 1 18200607907653795047
17349148 13 18131067151740449311
17834072 14 18260548879195211113
18981168 100 12822455571935310433
200 152 18271799138110698125
20715895 44 17981886346577637737
21304253 335 18198065772699698125
23184049 59 18409729560590688390
23388829 49 18343022176905666724
23557571 272 15769771403441303239
23559900 14 17417827144721379396
2748010 2 17407420043577909351
296302 2 18335700516186525327
3472631 163 16415485921937878225
34934 24 18271803489007540379
4409770 3 16322044708052063654
474 4 18409167709922320834
57005193 9 18341890770987894151
6034566 193 17102009124175744372
7064713 232 18059850611141387330
81228 2 17684946699380960700

> <PUBCHEM_SHAPE_MULTIPOLES>
414.56
8.04
2.19
1.48
2.82
0.12
-0.17
0.1
-1.83
0.63
0.31
-0.72
-0.05
-0.71

> <PUBCHEM_SHAPE_SELFOVERLAP>
876.526

> <PUBCHEM_SHAPE_VOLUME>
229

> <PUBCHEM_COORDINATE_TYPE>
2
5
10

$$$$
