87725
  -OEChem-10241302493D

 33 34  0     0  0  0  0  0  0999 V2000
   -0.2017   -1.2116   -1.2631 S   0  0  0  0  0  0  0  0  0  0  0  0
   -0.6149   -2.6052   -1.3896 O   0  0  0  0  0  0  0  0  0  0  0  0
    0.2730   -0.5169   -2.4548 O   0  0  0  0  0  0  0  0  0  0  0  0
    3.6351    1.2055   -0.4873 O   0  0  0  0  0  0  0  0  0  0  0  0
    0.3404   -2.9723    1.2140 O   0  0  0  0  0  0  0  0  0  0  0  0
    0.9945   -1.0703   -0.0026 N   0  0  0  0  0  0  0  0  0  0  0  0
    3.0654   -0.0475   -0.6779 N   0  0  0  0  0  0  0  0  0  0  0  0
   -4.7515    1.8847    0.9887 N   0  0  0  0  0  0  0  0  0  0  0  0
   -1.5375   -0.3026   -0.6017 C   0  0  0  0  0  0  0  0  0  0  0  0
    1.9025    0.0249   -0.0483 C   0  0  0  0  0  0  0  0  0  0  0  0
   -1.6440    1.0650   -0.8555 C   0  0  0  0  0  0  0  0  0  0  0  0
   -2.4983   -0.9435    0.1805 C   0  0  0  0  0  0  0  0  0  0  0  0
    1.1072   -2.0181    1.0913 C   0  0  0  0  0  0  0  0  0  0  0  0
    1.6638    1.2589    0.5531 C   0  0  0  0  0  0  0  0  0  0  0  0
   -2.7110    1.7915   -0.3269 C   0  0  0  0  0  0  0  0  0  0  0  0
   -3.5654   -0.2170    0.7089 C   0  0  0  0  0  0  0  0  0  0  0  0
   -3.6717    1.1505    0.4551 C   0  0  0  0  0  0  0  0  0  0  0  0
    2.7912    1.9745    0.2471 C   0  0  0  0  0  0  0  0  0  0  0  0
    2.1841   -1.7912    2.1248 C   0  0  0  0  0  0  0  0  0  0  0  0
    3.2387    3.3406    0.5443 C   0  0  0  0  0  0  0  0  0  0  0  0
   -0.9062    1.5860   -1.4590 H   0  0  0  0  0  0  0  0  0  0  0  0
   -2.4323   -2.0063    0.3957 H   0  0  0  0  0  0  0  0  0  0  0  0
    0.8122    1.5920    1.1277 H   0  0  0  0  0  0  0  0  0  0  0  0
   -2.7823    2.8567   -0.5310 H   0  0  0  0  0  0  0  0  0  0  0  0
   -4.3071   -0.7276    1.3179 H   0  0  0  0  0  0  0  0  0  0  0  0
    3.1707   -1.7920    1.6550 H   0  0  0  0  0  0  0  0  0  0  0  0
    2.1587   -2.6039    2.8574 H   0  0  0  0  0  0  0  0  0  0  0  0
    2.0105   -0.8508    2.6534 H   0  0  0  0  0  0  0  0  0  0  0  0
    4.1738    3.3242    1.1125 H   0  0  0  0  0  0  0  0  0  0  0  0
    3.4078    3.9000   -0.3809 H   0  0  0  0  0  0  0  0  0  0  0  0
    2.4926    3.8810    1.1351 H   0  0  0  0  0  0  0  0  0  0  0  0
   -4.8283    2.8765    0.8066 H   0  0  0  0  0  0  0  0  0  0  0  0
   -5.4474    1.4206    1.5572 H   0  0  0  0  0  0  0  0  0  0  0  0
  1  2  2  0  0  0  0
  1  3  2  0  0  0  0
  1  6  1  0  0  0  0
  1  9  1  0  0  0  0
  4  7  1  0  0  0  0
  4 18  1  0  0  0  0
  5 13  2  0  0  0  0
  6 10  1  0  0  0  0
  6 13  1  0  0  0  0
  7 10  2  0  0  0  0
  8 17  1  0  0  0  0
  8 32  1  0  0  0  0
  8 33  1  0  0  0  0
  9 11  2  0  0  0  0
  9 12  1  0  0  0  0
 10 14  1  0  0  0  0
 11 15  1  0  0  0  0
 11 21  1  0  0  0  0
 12 16  2  0  0  0  0
 12 22  1  0  0  0  0
 13 19  1  0  0  0  0
 14 18  2  0  0  0  0
 14 23  1  0  0  0  0
 15 17  2  0  0  0  0
 15 24  1  0  0  0  0
 16 17  1  0  0  0  0
 16 25  1  0  0  0  0
 18 20  1  0  0  0  0
 19 26  1  0  0  0  0
 19 27  1  0  0  0  0
 19 28  1  0  0  0  0
 20 29  1  0  0  0  0
 20 30  1  0  0  0  0
 20 31  1  0  0  0  0
M  END
> <PUBCHEM_COMPOUND_CID>
87725

> <PUBCHEM_CONFORMER_RMSD>
0.6

> <PUBCHEM_CONFORMER_DIVERSEORDER>
3
63
15
66
38
72
61
40
27
5
56
32
67
16
4
54
29
55
39
70
35
71
64
24
58
28
7
42
13
74
52
62
8
23
51
26
50
20
41
46
11
21
10
43
53
59
1
44
57
73
9
60
6
18
49
14
34
17
68
45
30
48
22
25
12
47
31
37
33
19
65
2
36
69

> <PUBCHEM_MMFF94_PARTIAL_CHARGES>
27
1 1.45
10 0.43
11 -0.15
12 -0.15
13 0.75
14 -0.15
15 -0.15
16 -0.15
17 0.1
18 -0.04
19 0.06
2 -0.65
20 0.18
21 0.15
22 0.15
23 0.15
24 0.15
25 0.15
3 -0.65
32 0.4
33 0.4
4 -0.02
5 -0.57
6 -0.52
7 -0.41
8 -0.9
9 -0.01

> <PUBCHEM_EFFECTIVE_ROTOR_COUNT>
4

> <PUBCHEM_PHARMACOPHORE_FEATURES>
8
1 2 acceptor
1 3 acceptor
1 5 acceptor
1 7 acceptor
1 8 cation
1 8 donor
5 4 7 10 14 18 rings
6 9 11 12 15 16 17 rings

> <PUBCHEM_HEAVY_ATOM_COUNT>
20

> <PUBCHEM_ATOM_DEF_STEREO_COUNT>
0

> <PUBCHEM_ATOM_UDEF_STEREO_COUNT>
0

> <PUBCHEM_BOND_DEF_STEREO_COUNT>
0

> <PUBCHEM_BOND_UDEF_STEREO_COUNT>
0

> <PUBCHEM_ISOTOPIC_ATOM_COUNT>
0

> <PUBCHEM_COMPONENT_COUNT>
1

> <PUBCHEM_CACTVS_TAUTO_COUNT>
1

> <PUBCHEM_CONFORMER_ID>
000156AD00000003

> <PUBCHEM_MMFF94_ENERGY>
52.7747

> <PUBCHEM_FEATURE_SELFOVERLAP>
40.619

> <PUBCHEM_SHAPE_FINGERPRINT>
10064457 181 17968107433813070970
10366900 7 18040724640725392889
10948715 1 18341619260203402355
12633257 1 18117272558773360875
128993 33 18341323487270423249
13544653 18 7853581205386843388
14178342 30 17677066719263405187
14223421 5 18115028507059519499
14787075 74 17614556373341183711
14955137 171 18264199206872315354
15295992 7 18336271253379852416
15534591 1 18197211671075814162
15775835 57 18411422821097528589
15848702 68 18120082888803263637
16945 1 17899683575270395143
17357990 137 18201140075671622770
201361 129 18335138670028980826
20510252 161 17032737726903621170
20600515 1 16454604075684488822
20723712 36 18197765610204147330
21041028 32 17903911159235834458
21524375 3 18411980303562727054
21756936 100 18193556890447137236
21864079 5 18201717362278827073
23419403 2 17192414117921049214
23558518 356 18121779692894980580
23559900 14 17842567241153970175
25 1 18411984684877956708
2637199 183 18342751701514475796
298252 57 17775006829524176174
31174 14 18117840993421150029
3797600 57 18272373104882106883
392239 28 17829051253450316099
427121 178 18042141936751311027
57003041 12 18335984284765371521
5845 1 15574989525250860935
5939293 188 18052533270716428488
633830 44 18412265059926451412
6442390 28 18189066445718844010
7097593 13 17972586693987642003
7226269 152 18272642490085743856
7364860 26 18192998123206260831
81228 2 17686048801142963436
8988823 20 18190177898263109213
9999458 23 18261119555990223964

> <PUBCHEM_SHAPE_MULTIPOLES>
377.02
6.62
3.22
1.58
3.3
0.15
0.26
5.6
-2.03
-1.8
-0.94
-0.26
-0.95
-0.76

> <PUBCHEM_SHAPE_SELFOVERLAP>
784.52

> <PUBCHEM_SHAPE_VOLUME>
215.3

> <PUBCHEM_COORDINATE_TYPE>
2
5
10

$$$$
