6444078
  -OEChem-10241302543D

 43 45  0     1  0  0  0  0  0999 V2000
   -3.4463    0.9611   -0.6737 O   0  0  0  0  0  0  0  0  0  0  0  0
   -3.3150    0.5112    1.6461 O   0  0  0  0  0  0  0  0  0  0  0  0
   -4.8743   -1.7666    1.3359 O   0  0  0  0  0  0  0  0  0  0  0  0
   -7.2283   -0.5177    0.1858 O   0  0  0  0  0  0  0  0  0  0  0  0
   -6.0284    0.7334   -1.9485 O   0  0  0  0  0  0  0  0  0  0  0  0
    3.5855    2.1010    0.4845 O   0  0  0  0  0  0  0  0  0  0  0  0
    6.2577    2.5263    0.4568 O   0  0  0  0  0  0  0  0  0  0  0  0
   -1.0687   -0.2719    0.1511 N   0  0  0  0  0  0  0  0  0  0  0  0
    4.2089   -2.3198   -0.5674 N   0  0  0  0  0  0  0  0  0  0  0  0
   -3.4778   -0.0528    0.3409 C   0  0  1  0  0  0  0  0  0  0  0  0
   -4.8183   -0.8110    0.2796 C   0  0  2  0  0  0  0  0  0  0  0  0
   -5.9943    0.1631    0.3955 C   0  0  1  0  0  0  0  0  0  0  0  0
   -5.8651    1.2815   -0.6380 C   0  0  1  0  0  0  0  0  0  0  0  0
   -4.4900    1.9337   -0.5550 C   0  0  0  0  0  0  0  0  0  0  0  0
   -2.3063   -1.0001    0.0743 C   0  0  0  0  0  0  0  0  0  0  0  0
    0.1550   -0.8357   -0.0362 C   0  0  0  0  0  0  0  0  0  0  0  0
    2.6518   -0.8118   -0.1467 C   0  0  0  0  0  0  0  0  0  0  0  0
    1.3478   -0.2276    0.0487 C   0  0  0  0  0  0  0  0  0  0  0  0
    3.8874   -0.1777   -0.0575 C   0  0  0  0  0  0  0  0  0  0  0  0
    4.8395   -1.1346   -0.3231 C   0  0  0  0  0  0  0  0  0  0  0  0
    2.8503   -2.1252   -0.4594 C   0  0  0  0  0  0  0  0  0  0  0  0
    4.3274    1.1636    0.2325 C   0  0  0  0  0  0  0  0  0  0  0  0
    6.2385   -0.9767   -0.3519 C   0  0  0  0  0  0  0  0  0  0  0  0
    5.8326    1.4070    0.2179 C   0  0  0  0  0  0  0  0  0  0  0  0
    6.7303    0.2472   -0.0919 C   0  0  0  0  0  0  0  0  0  0  0  0
   -4.9060   -1.3618   -0.6659 H   0  0  0  0  0  0  0  0  0  0  0  0
   -6.0352    0.5847    1.4065 H   0  0  0  0  0  0  0  0  0  0  0  0
   -6.6527    2.0306   -0.5024 H   0  0  0  0  0  0  0  0  0  0  0  0
   -4.3574    2.6373   -1.3835 H   0  0  0  0  0  0  0  0  0  0  0  0
   -4.3665    2.4897    0.3808 H   0  0  0  0  0  0  0  0  0  0  0  0
   -2.4023   -1.4475   -0.9223 H   0  0  0  0  0  0  0  0  0  0  0  0
   -2.2802   -1.8042    0.8182 H   0  0  0  0  0  0  0  0  0  0  0  0
   -2.3684    0.5438    1.8599 H   0  0  0  0  0  0  0  0  0  0  0  0
   -4.2970   -2.5105    1.0959 H   0  0  0  0  0  0  0  0  0  0  0  0
   -1.0897    0.7303    0.3118 H   0  0  0  0  0  0  0  0  0  0  0  0
   -7.1552   -1.0346   -0.6341 H   0  0  0  0  0  0  0  0  0  0  0  0
   -6.9543    0.4495   -2.0325 H   0  0  0  0  0  0  0  0  0  0  0  0
    0.0834   -1.8939   -0.2657 H   0  0  0  0  0  0  0  0  0  0  0  0
    1.3328    0.8338    0.2899 H   0  0  0  0  0  0  0  0  0  0  0  0
    2.1790   -2.9576   -0.6206 H   0  0  0  0  0  0  0  0  0  0  0  0
    4.6557   -3.1991   -0.7913 H   0  0  0  0  0  0  0  0  0  0  0  0
    6.8950   -1.8101   -0.5751 H   0  0  0  0  0  0  0  0  0  0  0  0
    7.7982    0.4348   -0.0983 H   0  0  0  0  0  0  0  0  0  0  0  0
  1 10  1  0  0  0  0
  1 14  1  0  0  0  0
  2 10  1  0  0  0  0
  2 33  1  0  0  0  0
  3 11  1  0  0  0  0
  3 34  1  0  0  0  0
  4 12  1  0  0  0  0
  4 36  1  0  0  0  0
  5 13  1  0  0  0  0
  5 37  1  0  0  0  0
  6 22  2  0  0  0  0
  7 24  2  0  0  0  0
  8 15  1  0  0  0  0
  8 16  1  0  0  0  0
  8 35  1  0  0  0  0
  9 20  1  0  0  0  0
  9 21  1  0  0  0  0
  9 41  1  0  0  0  0
 10 11  1  0  0  0  0
 10 15  1  0  0  0  0
 11 12  1  0  0  0  0
 11 26  1  0  0  0  0
 12 13  1  0  0  0  0
 12 27  1  0  0  0  0
 13 14  1  0  0  0  0
 13 28  1  0  0  0  0
 14 29  1  0  0  0  0
 14 30  1  0  0  0  0
 15 31  1  0  0  0  0
 15 32  1  0  0  0  0
 16 18  2  0  0  0  0
 16 38  1  0  0  0  0
 17 18  1  0  0  0  0
 17 19  1  0  0  0  0
 17 21  2  0  0  0  0
 18 39  1  0  0  0  0
 19 20  2  0  0  0  0
 19 22  1  0  0  0  0
 20 23  1  0  0  0  0
 21 40  1  0  0  0  0
 22 24  1  0  0  0  0
 23 25  2  0  0  0  0
 23 42  1  0  0  0  0
 24 25  1  0  0  0  0
 25 43  1  0  0  0  0
M  END
> <PUBCHEM_COMPOUND_CID>
6444078

> <PUBCHEM_CONFORMER_RMSD>
0.8

> <PUBCHEM_CONFORMER_DIVERSEORDER>
1
28
63
41
65
43
42
21
27
24
66
55
32
56
17
14
12
26
39
6
59
23
11
58
9
62
5
61
38
22
3
36
46
49
60
8
47
25
50
18
35
51
30
29
54
45
44
37
7
48
57
2
52
10
13
40
33
34
20
31
16
64
19
15
53
4

> <PUBCHEM_MMFF94_PARTIAL_CHARGES>
36
1 -0.56
10 0.56
11 0.28
12 0.28
13 0.28
14 0.28
15 0.37
16 -0.05
17 -0.05
18 -0.1
19 -0.09
2 -0.68
20 -0.2
21 -0.3
22 0.66
23 -0.11
24 0.56
25 -0.14
3 -0.68
33 0.4
34 0.4
35 0.4
36 0.4
37 0.4
38 0.15
39 0.15
4 -0.68
40 0.15
41 0.27
42 0.15
43 0.15
5 -0.68
6 -0.57
7 -0.57
8 -0.87
9 0.03

> <PUBCHEM_EFFECTIVE_ROTOR_COUNT>
5.2

> <PUBCHEM_PHARMACOPHORE_FEATURES>
18
1 1 acceptor
1 2 acceptor
1 2 donor
1 3 acceptor
1 3 donor
1 4 acceptor
1 4 donor
1 5 acceptor
1 5 donor
1 6 acceptor
1 7 acceptor
1 8 cation
1 8 donor
1 9 cation
1 9 donor
5 9 17 19 20 21 rings
6 1 10 11 12 13 14 rings
6 19 20 22 23 24 25 rings

> <PUBCHEM_HEAVY_ATOM_COUNT>
25

> <PUBCHEM_ATOM_DEF_STEREO_COUNT>
4

> <PUBCHEM_ATOM_UDEF_STEREO_COUNT>
0

> <PUBCHEM_BOND_DEF_STEREO_COUNT>
1

> <PUBCHEM_BOND_UDEF_STEREO_COUNT>
0

> <PUBCHEM_ISOTOPIC_ATOM_COUNT>
0

> <PUBCHEM_COMPONENT_COUNT>
1

> <PUBCHEM_CACTVS_TAUTO_COUNT>
6

> <PUBCHEM_CONFORMER_ID>
0062542E00000001

> <PUBCHEM_MMFF94_ENERGY>
54.2375

> <PUBCHEM_FEATURE_SELFOVERLAP>
91.521

> <PUBCHEM_SHAPE_FINGERPRINT>
10 15 18260266386643586912
10411042 1 17981894043771196134
10595046 47 18202282498307110099
10638233 991 17131833191899098152
10835480 77 18410008815037970221
11315181 36 18344149185905731689
11719270 70 18342735188041014498
12166972 35 18411704291816779945
12236239 1 17489870418736597938
12516196 113 18410012126278251573
12730499 353 18410295796537287678
13402501 40 18335137592171992204
13533116 47 17203048483095635038
14461889 52 18334294313971807138
14933364 13 18410295804419937765
15183329 4 18342176639716402280
15419008 145 18189041020467604136
15419008 47 18186236221459480949
15475509 35 16878769532417843394
15799311 1 14692577614945356031
16079462 125 18186514397562833775
17844677 252 18340494374072521285
18335252 98 18340771528966649747
18927931 339 13398625061891365925
19427546 62 18339363071819935654
19489759 90 17458067058431553435
20157964 124 18343303661105477014
20281389 69 18334294270979500216
20554085 129 16877935032313061161
21033648 29 18336538408703567528
21150785 3 17917704717316044279
21315763 28 18411981334576735830
220451 1 16056598734073471247
23081809 10 16845294903955092075
23424782 7 18337112358316361267
23522609 53 16844751801245805273
23559900 14 18409727374478734681
255183 451 17558281921587642734
2916195 48 18333449854581319690
29717793 49 17275109401643374302
300161 21 18411134740672418590
335352 9 18343589539125331982
3383291 50 17313397764067370739
34797466 226 18060144227647823814
3545911 37 18412546517712502634
4073 2 18114187479354171346
5104073 3 18260552177835811139
9995097 60 18410012139199940262

> <PUBCHEM_SHAPE_MULTIPOLES>
463.44
21.51
2.1
0.96
6.8
0.39
0.05
4.75
1.15
-2.25
0
1.39
0.07
2.06

> <PUBCHEM_SHAPE_SELFOVERLAP>
1002.164

> <PUBCHEM_SHAPE_VOLUME>
250.8

> <PUBCHEM_COORDINATE_TYPE>
2
5
10

$$$$
