1548887
  -OEChem-10241302533D

 42 44  0     1  0  0  0  0  0999 V2000
   -6.0158   -0.1468   -0.5535 S   0  0  1  0  0  0  0  0  0  0  0  0
    1.8176   -4.2629    0.1823 F   0  0  0  0  0  0  0  0  0  0  0  0
    6.4240    0.4621   -0.4770 O   0  0  0  0  0  0  0  0  0  0  0  0
    4.5391    0.5893   -1.7442 O   0  0  0  0  0  0  0  0  0  0  0  0
   -6.7404    0.0925    0.7419 O   0  0  0  0  0  0  0  0  0  0  0  0
    2.9129    0.5542    0.5243 C   0  0  0  0  0  0  0  0  0  0  0  0
    2.0900   -0.6598    0.3742 C   0  0  0  0  0  0  0  0  0  0  0  0
    2.0879    1.6224    0.4752 C   0  0  0  0  0  0  0  0  0  0  0  0
    0.7112    1.1605    0.2937 C   0  0  0  0  0  0  0  0  0  0  0  0
    0.7387   -0.3019    0.2319 C   0  0  0  0  0  0  0  0  0  0  0  0
    4.3880    0.4854    0.6926 C   0  0  0  0  0  0  0  0  0  0  0  0
   -0.3911    1.9134    0.1979 C   0  0  0  0  0  0  0  0  0  0  0  0
    2.4697   -1.9941    0.3595 C   0  0  0  0  0  0  0  0  0  0  0  0
   -0.2509   -1.2584    0.0734 C   0  0  0  0  0  0  0  0  0  0  0  0
    2.4392    3.0672    0.5799 C   0  0  0  0  0  0  0  0  0  0  0  0
   -1.7627    1.4106    0.0148 C   0  0  0  0  0  0  0  0  0  0  0  0
    1.4786   -2.9665    0.2002 C   0  0  0  0  0  0  0  0  0  0  0  0
    0.1303   -2.6016    0.0583 C   0  0  0  0  0  0  0  0  0  0  0  0
    5.0773    0.5217   -0.6494 C   0  0  0  0  0  0  0  0  0  0  0  0
   -2.2631    1.2534   -1.2680 C   0  0  0  0  0  0  0  0  0  0  0  0
   -2.5286    1.1039    1.1287 C   0  0  0  0  0  0  0  0  0  0  0  0
   -4.3452    0.4641   -0.3301 C   0  0  0  0  0  0  0  0  0  0  0  0
   -3.5627    0.7772   -1.4417 C   0  0  0  0  0  0  0  0  0  0  0  0
   -3.8282    0.6276    0.9551 C   0  0  0  0  0  0  0  0  0  0  0  0
   -5.6159   -1.9135   -0.6202 C   0  0  0  0  0  0  0  0  0  0  0  0
    4.6883   -0.4187    1.2316 H   0  0  0  0  0  0  0  0  0  0  0  0
    4.7396    1.3438    1.2757 H   0  0  0  0  0  0  0  0  0  0  0  0
   -0.3247    2.9976    0.2527 H   0  0  0  0  0  0  0  0  0  0  0  0
    3.5061   -2.2961    0.4639 H   0  0  0  0  0  0  0  0  0  0  0  0
   -1.3011   -1.0475   -0.0436 H   0  0  0  0  0  0  0  0  0  0  0  0
    3.5172    3.2211    0.6854 H   0  0  0  0  0  0  0  0  0  0  0  0
    1.9545    3.5203    1.4509 H   0  0  0  0  0  0  0  0  0  0  0  0
    2.1209    3.6078   -0.3177 H   0  0  0  0  0  0  0  0  0  0  0  0
   -0.6229   -3.3751   -0.0652 H   0  0  0  0  0  0  0  0  0  0  0  0
   -1.6633    1.4935   -2.1419 H   0  0  0  0  0  0  0  0  0  0  0  0
   -2.1366    1.2260    2.1350 H   0  0  0  0  0  0  0  0  0  0  0  0
   -3.9514    0.6548   -2.4494 H   0  0  0  0  0  0  0  0  0  0  0  0
   -4.4154    0.3860    1.8370 H   0  0  0  0  0  0  0  0  0  0  0  0
    6.9030    0.4813   -1.3329 H   0  0  0  0  0  0  0  0  0  0  0  0
   -4.9916   -2.1148   -1.4940 H   0  0  0  0  0  0  0  0  0  0  0  0
   -6.5488   -2.4757   -0.7069 H   0  0  0  0  0  0  0  0  0  0  0  0
   -5.0954   -2.2156    0.2918 H   0  0  0  0  0  0  0  0  0  0  0  0
  1  5  2  0  0  0  0
  1 22  1  0  0  0  0
  1 25  1  0  0  0  0
  2 17  1  0  0  0  0
  3 19  1  0  0  0  0
  3 39  1  0  0  0  0
  4 19  2  0  0  0  0
  6  7  1  0  0  0  0
  6  8  2  0  0  0  0
  6 11  1  0  0  0  0
  7 10  2  0  0  0  0
  7 13  1  0  0  0  0
  8  9  1  0  0  0  0
  8 15  1  0  0  0  0
  9 10  1  0  0  0  0
  9 12  2  0  0  0  0
 10 14  1  0  0  0  0
 11 19  1  0  0  0  0
 11 26  1  0  0  0  0
 11 27  1  0  0  0  0
 12 16  1  0  0  0  0
 12 28  1  0  0  0  0
 13 17  2  0  0  0  0
 13 29  1  0  0  0  0
 14 18  2  0  0  0  0
 14 30  1  0  0  0  0
 15 31  1  0  0  0  0
 15 32  1  0  0  0  0
 15 33  1  0  0  0  0
 16 20  2  0  0  0  0
 16 21  1  0  0  0  0
 17 18  1  0  0  0  0
 18 34  1  0  0  0  0
 20 23  1  0  0  0  0
 20 35  1  0  0  0  0
 21 24  2  0  0  0  0
 21 36  1  0  0  0  0
 22 23  2  0  0  0  0
 22 24  1  0  0  0  0
 23 37  1  0  0  0  0
 24 38  1  0  0  0  0
 25 40  1  0  0  0  0
 25 41  1  0  0  0  0
 25 42  1  0  0  0  0
M  END
> <PUBCHEM_COMPOUND_CID>
1548887

> <PUBCHEM_CONFORMER_RMSD>
0.8

> <PUBCHEM_CONFORMER_DIVERSEORDER>
1
5
4
2
3

> <PUBCHEM_MMFF94_PARTIAL_CHARGES>
34
1 0.24
10 0.03
11 0.2
12 -0.18
13 -0.15
14 -0.15
15 0.14
16 0.03
17 0.19
18 -0.15
19 0.66
2 -0.19
20 -0.15
21 -0.15
22 0.06
23 -0.15
24 -0.15
25 0.19
28 0.15
29 0.15
3 -0.65
30 0.15
34 0.15
35 0.15
36 0.15
37 0.15
38 0.15
39 0.5
4 -0.57
5 -0.5
6 -0.17
7 0.03
8 -0.14
9 -0.03

> <PUBCHEM_EFFECTIVE_ROTOR_COUNT>
4

> <PUBCHEM_PHARMACOPHORE_FEATURES>
7
1 3 acceptor
1 4 acceptor
1 5 acceptor
3 3 4 19 anion
5 6 7 8 9 10 rings
6 16 20 21 22 23 24 rings
6 7 10 13 14 17 18 rings

> <PUBCHEM_HEAVY_ATOM_COUNT>
25

> <PUBCHEM_ATOM_DEF_STEREO_COUNT>
0

> <PUBCHEM_ATOM_UDEF_STEREO_COUNT>
1

> <PUBCHEM_BOND_DEF_STEREO_COUNT>
1

> <PUBCHEM_BOND_UDEF_STEREO_COUNT>
0

> <PUBCHEM_ISOTOPIC_ATOM_COUNT>
0

> <PUBCHEM_COMPONENT_COUNT>
1

> <PUBCHEM_CACTVS_TAUTO_COUNT>
1

> <PUBCHEM_CONFORMER_ID>
0017A25700000001

> <PUBCHEM_MMFF94_ENERGY>
75.2409

> <PUBCHEM_FEATURE_SELFOVERLAP>
35.661

> <PUBCHEM_SHAPE_FINGERPRINT>
10366900 7 18260832600614365497
10693767 8 18059572434826726070
1100329 8 18269832176307235840
11089746 13 13190340179641063869
11405975 8 11023810795778288221
11488393 25 17916322549237803862
11578080 2 17752196193933276709
11963148 33 18260541260219764563
12011746 2 18407762546851830000
12236239 1 17561364002471039577
12293681 25 17895776005772333275
12596602 18 17131549552870481459
12730499 353 18408324397430539905
12788726 201 17346038871234725289
13009979 54 17414713172502827682
13140716 1 18268420407862114512
13257819 37 18262253195934679382
13383665 225 17678472874323967317
13402501 40 18260832618115884155
13583140 156 16732989730122454424
13836976 161 18261114092881552564
13862211 1 18411697660966971608
13911987 19 18262256498564323100
14617045 38 18410294718458077591
14787075 74 18334012778722791267
14790565 3 18265615579237450149
14863182 85 18409451366726515862
15537594 2 18273490170257661871
19591789 44 18266462186147832778
20028762 73 18129657629162751743
20511986 3 12757424007765676413
21054139 6 18341046401760702239
21197605 99 18194122043887944099
21267235 1 18272092725227778569
21344244 181 17917445211145156198
21521721 280 18341054115865143240
21618674 57 12751519591590562853
21781051 124 18187939391035809850
221490 88 18121493566416245863
22393880 68 18343294860380182885
22956985 138 17681819727610682026
23559900 14 17977929199337744739
23569917 315 18410294684283969042
23569943 247 17557724477376164622
239999 70 18131353028752780660
3178227 256 18410580608049382232
335352 9 18411140264754404108
33824 294 18410005524960737211
350125 39 18337670926880485440
4325135 7 17967813851449854525
484989 97 18265340688593219418
58260988 647 16558209107240139358
59755656 215 18410294722331214063
6669772 16 18270394010212686332

> <PUBCHEM_SHAPE_MULTIPOLES>
493.46
12.77
3.16
1.09
9.04
2.93
-0.26
-0.63
-2.32
-2.05
0.4
0.2
-0.32
-0.3

> <PUBCHEM_SHAPE_SELFOVERLAP>
1064.443

> <PUBCHEM_SHAPE_VOLUME>
276.7

> <PUBCHEM_COORDINATE_TYPE>
2
5
10

$$$$
1548885
  -OEChem-10241302533D

 42 44  0     1  0  0  0  0  0999 V2000
   -6.2580    0.2340    0.2436 S   0  0  1  0  0  0  0  0  0  0  0  0
    6.0303   -1.6631   -0.1798 F   0  0  0  0  0  0  0  0  0  0  0  0
    3.1824    4.3208   -0.0789 O   0  0  0  0  0  0  0  0  0  0  0  0
    2.5068    2.7831    1.4554 O   0  0  0  0  0  0  0  0  0  0  0  0
   -6.9088   -0.4107   -0.9485 O   0  0  0  0  0  0  0  0  0  0  0  0
    1.8435    0.9554   -0.5475 C   0  0  0  0  0  0  0  0  0  0  0  0
    2.7210   -0.2056   -0.3115 C   0  0  0  0  0  0  0  0  0  0  0  0
    0.5682    0.5576   -0.3492 C   0  0  0  0  0  0  0  0  0  0  0  0
    0.5565   -0.8587    0.0191 C   0  0  0  0  0  0  0  0  0  0  0  0
    1.9444   -1.3238    0.0364 C   0  0  0  0  0  0  0  0  0  0  0  0
    2.3876    2.2834   -0.9339 C   0  0  0  0  0  0  0  0  0  0  0  0
   -0.5116   -1.6163    0.2950 C   0  0  0  0  0  0  0  0  0  0  0  0
    4.1026   -0.3050   -0.3884 C   0  0  0  0  0  0  0  0  0  0  0  0
    2.5249   -2.5513    0.3114 C   0  0  0  0  0  0  0  0  0  0  0  0
   -0.6802    1.3636   -0.4661 C   0  0  0  0  0  0  0  0  0  0  0  0
   -1.9128   -1.1649    0.2822 C   0  0  0  0  0  0  0  0  0  0  0  0
    4.6977   -1.5392   -0.1127 C   0  0  0  0  0  0  0  0  0  0  0  0
    3.9155   -2.6523    0.2340 C   0  0  0  0  0  0  0  0  0  0  0  0
    2.6825    3.1129    0.2920 C   0  0  0  0  0  0  0  0  0  0  0  0
   -2.4796   -0.6752    1.4485 C   0  0  0  0  0  0  0  0  0  0  0  0
   -2.6398   -1.2379   -0.8956 C   0  0  0  0  0  0  0  0  0  0  0  0
   -4.5512   -0.3148    0.2584 C   0  0  0  0  0  0  0  0  0  0  0  0
   -3.8073   -0.2475    1.4364 C   0  0  0  0  0  0  0  0  0  0  0  0
   -3.9674   -0.8101   -0.9078 C   0  0  0  0  0  0  0  0  0  0  0  0
   -5.9470    1.9657   -0.1924 C   0  0  0  0  0  0  0  0  0  0  0  0
    1.6566    2.8276   -1.5422 H   0  0  0  0  0  0  0  0  0  0  0  0
    3.2983    2.1842   -1.5331 H   0  0  0  0  0  0  0  0  0  0  0  0
   -0.3925   -2.6646    0.5596 H   0  0  0  0  0  0  0  0  0  0  0  0
    4.7245    0.5439   -0.6510 H   0  0  0  0  0  0  0  0  0  0  0  0
    1.9307   -3.4177    0.5802 H   0  0  0  0  0  0  0  0  0  0  0  0
   -0.4397    2.4004   -0.7289 H   0  0  0  0  0  0  0  0  0  0  0  0
   -1.2155    1.4350    0.4821 H   0  0  0  0  0  0  0  0  0  0  0  0
   -1.3251    1.0092   -1.2718 H   0  0  0  0  0  0  0  0  0  0  0  0
    4.3994   -3.6023    0.4441 H   0  0  0  0  0  0  0  0  0  0  0  0
   -1.9106   -0.6179    2.3725 H   0  0  0  0  0  0  0  0  0  0  0  0
   -2.1961   -1.6215   -1.8106 H   0  0  0  0  0  0  0  0  0  0  0  0
   -4.2481    0.1362    2.3529 H   0  0  0  0  0  0  0  0  0  0  0  0
   -4.5237   -0.8681   -1.8393 H   0  0  0  0  0  0  0  0  0  0  0  0
    3.3831    4.8867    0.6968 H   0  0  0  0  0  0  0  0  0  0  0  0
   -5.3745    2.4467    0.6043 H   0  0  0  0  0  0  0  0  0  0  0  0
   -6.9089    2.4725   -0.3011 H   0  0  0  0  0  0  0  0  0  0  0  0
   -5.3996    2.0231   -1.1365 H   0  0  0  0  0  0  0  0  0  0  0  0
  1  5  2  0  0  0  0
  1 22  1  0  0  0  0
  1 25  1  0  0  0  0
  2 17  1  0  0  0  0
  3 19  1  0  0  0  0
  3 39  1  0  0  0  0
  4 19  2  0  0  0  0
  6  7  1  0  0  0  0
  6  8  2  0  0  0  0
  6 11  1  0  0  0  0
  7 10  2  0  0  0  0
  7 13  1  0  0  0  0
  8  9  1  0  0  0  0
  8 15  1  0  0  0  0
  9 10  1  0  0  0  0
  9 12  2  0  0  0  0
 10 14  1  0  0  0  0
 11 19  1  0  0  0  0
 11 26  1  0  0  0  0
 11 27  1  0  0  0  0
 12 16  1  0  0  0  0
 12 28  1  0  0  0  0
 13 17  2  0  0  0  0
 13 29  1  0  0  0  0
 14 18  2  0  0  0  0
 14 30  1  0  0  0  0
 15 31  1  0  0  0  0
 15 32  1  0  0  0  0
 15 33  1  0  0  0  0
 16 20  2  0  0  0  0
 16 21  1  0  0  0  0
 17 18  1  0  0  0  0
 18 34  1  0  0  0  0
 20 23  1  0  0  0  0
 20 35  1  0  0  0  0
 21 24  2  0  0  0  0
 21 36  1  0  0  0  0
 22 23  2  0  0  0  0
 22 24  1  0  0  0  0
 23 37  1  0  0  0  0
 24 38  1  0  0  0  0
 25 40  1  0  0  0  0
 25 41  1  0  0  0  0
 25 42  1  0  0  0  0
M  END
> <PUBCHEM_COMPOUND_CID>
1548885

> <PUBCHEM_CONFORMER_RMSD>
0.8

> <PUBCHEM_CONFORMER_DIVERSEORDER>
2
3
5
1
4

> <PUBCHEM_MMFF94_PARTIAL_CHARGES>
34
1 0.24
10 0.03
11 0.2
12 -0.18
13 -0.15
14 -0.15
15 0.14
16 0.03
17 0.19
18 -0.15
19 0.66
2 -0.19
20 -0.15
21 -0.15
22 0.06
23 -0.15
24 -0.15
25 0.19
28 0.15
29 0.15
3 -0.65
30 0.15
34 0.15
35 0.15
36 0.15
37 0.15
38 0.15
39 0.5
4 -0.57
5 -0.5
6 -0.17
7 0.03
8 -0.14
9 -0.03

> <PUBCHEM_EFFECTIVE_ROTOR_COUNT>
4

> <PUBCHEM_PHARMACOPHORE_FEATURES>
7
1 3 acceptor
1 4 acceptor
1 5 acceptor
3 3 4 19 anion
5 6 7 8 9 10 rings
6 16 20 21 22 23 24 rings
6 7 10 13 14 17 18 rings

> <PUBCHEM_HEAVY_ATOM_COUNT>
25

> <PUBCHEM_ATOM_DEF_STEREO_COUNT>
0

> <PUBCHEM_ATOM_UDEF_STEREO_COUNT>
1

> <PUBCHEM_BOND_DEF_STEREO_COUNT>
1

> <PUBCHEM_BOND_UDEF_STEREO_COUNT>
0

> <PUBCHEM_ISOTOPIC_ATOM_COUNT>
0

> <PUBCHEM_COMPONENT_COUNT>
1

> <PUBCHEM_CACTVS_TAUTO_COUNT>
1

> <PUBCHEM_CONFORMER_ID>
0017A25500000002

> <PUBCHEM_MMFF94_ENERGY>
76.4725

> <PUBCHEM_FEATURE_SELFOVERLAP>
35.661

> <PUBCHEM_SHAPE_FINGERPRINT>
10411042 1 18121499055938916230
10595046 47 18270114751481279127
11089746 13 18410292502170446383
11421498 54 11818987474852613958
11456790 92 17896604990400115265
11545043 162 17168723997934790875
12166972 35 18202561752912147947
12236239 1 18131913745940665535
12403260 363 18201442450317983241
12516196 113 18339642244367050026
12549972 3 17895489123088411833
12616971 3 18202848760307979759
13134695 92 18409167697475126054
13140716 1 18191309488621869690
13533116 47 18412828010196201537
13590594 115 18338241448972558808
13878862 14 18336247016874412357
14170010 4 18411416219933248370
14178342 30 17830457541575254530
14294032 229 16986330279317226849
14466204 15 18194120711856524041
14739800 52 17345747633048622072
14848178 96 18196938987671026425
15042514 8 17832140520568769490
15183329 4 18335136437279158439
15527383 91 18334860502066441751
15849732 13 17775001263399814494
15927050 60 17979921832999752334
16087824 20 18120938304744974221
17844677 252 18410019849315154451
17980427 23 17774168894004889593
1813 80 18200607882322101414
18335252 114 18266168441072173365
18681886 176 18202558475509833018
20511986 3 17917135187034784263
20612939 158 18409169934804719735
20832881 197 18261111816380126210
21033648 144 18335692905921273823
21033648 29 17313090965725735199
21033650 10 15266248910797435883
21267235 1 18263370205201521230
21279426 13 17825665543658167191
21304253 13 18341328908267892744
21304303 172 17986682467689515288
2132832 1 18131355176421383217
21452121 103 18337667619861513536
21641784 216 17751382611627137902
21792961 116 17750234704250659294
22122407 14 18267884830215416297
221357 26 18187922842415502855
22182313 1 17823396306002882508
22393880 68 18128264586526438903
23557571 272 14333416623142702019
23559900 14 17894636988618084165
24771293 8 18200014266813532144
2838139 119 18338231558702132325
335352 9 18335423461095503814
350125 39 18335986384825447037
474 4 18195527214888174360
495365 180 18340764956901269840
5104073 3 18262523701496195019
57724786 102 18040723605638645189
5895379 119 16843912813507081168
67856867 119 18272929466303000203
7364860 26 18339361972138885604
7471813 234 18131348600857808728
84936 182 18056765562039760752
9971528 1 18343864407772466970
9981440 41 17763458817901184208

> <PUBCHEM_SHAPE_MULTIPOLES>
493.46
13.45
3.44
1.03
16.09
3.67
-0.2
-1.11
1.08
-5.58
-0.36
0.68
0.11
0.12

> <PUBCHEM_SHAPE_SELFOVERLAP>
1065.044

> <PUBCHEM_SHAPE_VOLUME>
276.4

> <PUBCHEM_COORDINATE_TYPE>
2
5
10

$$$$
5352
  -OEChem-10241302533D

 42 44  0     1  0  0  0  0  0999 V2000
   -6.2580    0.2340    0.2436 S   0  0  1  0  0  0  0  0  0  0  0  0
    6.0303   -1.6631   -0.1798 F   0  0  0  0  0  0  0  0  0  0  0  0
    3.1824    4.3208   -0.0789 O   0  0  0  0  0  0  0  0  0  0  0  0
    2.5068    2.7831    1.4554 O   0  0  0  0  0  0  0  0  0  0  0  0
   -6.9088   -0.4107   -0.9485 O   0  0  0  0  0  0  0  0  0  0  0  0
    1.8435    0.9554   -0.5475 C   0  0  0  0  0  0  0  0  0  0  0  0
    2.7210   -0.2056   -0.3115 C   0  0  0  0  0  0  0  0  0  0  0  0
    0.5682    0.5576   -0.3492 C   0  0  0  0  0  0  0  0  0  0  0  0
    0.5565   -0.8587    0.0191 C   0  0  0  0  0  0  0  0  0  0  0  0
    1.9444   -1.3238    0.0364 C   0  0  0  0  0  0  0  0  0  0  0  0
    2.3876    2.2834   -0.9339 C   0  0  0  0  0  0  0  0  0  0  0  0
   -0.5116   -1.6163    0.2950 C   0  0  0  0  0  0  0  0  0  0  0  0
    4.1026   -0.3050   -0.3884 C   0  0  0  0  0  0  0  0  0  0  0  0
    2.5249   -2.5513    0.3114 C   0  0  0  0  0  0  0  0  0  0  0  0
   -0.6802    1.3636   -0.4661 C   0  0  0  0  0  0  0  0  0  0  0  0
   -1.9128   -1.1649    0.2822 C   0  0  0  0  0  0  0  0  0  0  0  0
    4.6977   -1.5392   -0.1127 C   0  0  0  0  0  0  0  0  0  0  0  0
    3.9155   -2.6523    0.2340 C   0  0  0  0  0  0  0  0  0  0  0  0
    2.6825    3.1129    0.2920 C   0  0  0  0  0  0  0  0  0  0  0  0
   -2.4796   -0.6752    1.4485 C   0  0  0  0  0  0  0  0  0  0  0  0
   -2.6398   -1.2379   -0.8956 C   0  0  0  0  0  0  0  0  0  0  0  0
   -4.5512   -0.3148    0.2584 C   0  0  0  0  0  0  0  0  0  0  0  0
   -3.8073   -0.2475    1.4364 C   0  0  0  0  0  0  0  0  0  0  0  0
   -3.9674   -0.8101   -0.9078 C   0  0  0  0  0  0  0  0  0  0  0  0
   -5.9470    1.9657   -0.1924 C   0  0  0  0  0  0  0  0  0  0  0  0
    1.6566    2.8276   -1.5422 H   0  0  0  0  0  0  0  0  0  0  0  0
    3.2983    2.1842   -1.5331 H   0  0  0  0  0  0  0  0  0  0  0  0
   -0.3925   -2.6646    0.5596 H   0  0  0  0  0  0  0  0  0  0  0  0
    4.7245    0.5439   -0.6510 H   0  0  0  0  0  0  0  0  0  0  0  0
    1.9307   -3.4177    0.5802 H   0  0  0  0  0  0  0  0  0  0  0  0
   -0.4397    2.4004   -0.7289 H   0  0  0  0  0  0  0  0  0  0  0  0
   -1.2155    1.4350    0.4821 H   0  0  0  0  0  0  0  0  0  0  0  0
   -1.3251    1.0092   -1.2718 H   0  0  0  0  0  0  0  0  0  0  0  0
    4.3994   -3.6023    0.4441 H   0  0  0  0  0  0  0  0  0  0  0  0
   -1.9106   -0.6179    2.3725 H   0  0  0  0  0  0  0  0  0  0  0  0
   -2.1961   -1.6215   -1.8106 H   0  0  0  0  0  0  0  0  0  0  0  0
   -4.2481    0.1362    2.3529 H   0  0  0  0  0  0  0  0  0  0  0  0
   -4.5237   -0.8681   -1.8393 H   0  0  0  0  0  0  0  0  0  0  0  0
    3.3831    4.8867    0.6968 H   0  0  0  0  0  0  0  0  0  0  0  0
   -5.3745    2.4467    0.6043 H   0  0  0  0  0  0  0  0  0  0  0  0
   -6.9089    2.4725   -0.3011 H   0  0  0  0  0  0  0  0  0  0  0  0
   -5.3996    2.0231   -1.1365 H   0  0  0  0  0  0  0  0  0  0  0  0
  1  5  2  0  0  0  0
  1 22  1  0  0  0  0
  1 25  1  0  0  0  0
  2 17  1  0  0  0  0
  3 19  1  0  0  0  0
  3 39  1  0  0  0  0
  4 19  2  0  0  0  0
  6  7  1  0  0  0  0
  6  8  2  0  0  0  0
  6 11  1  0  0  0  0
  7 10  2  0  0  0  0
  7 13  1  0  0  0  0
  8  9  1  0  0  0  0
  8 15  1  0  0  0  0
  9 10  1  0  0  0  0
  9 12  2  0  0  0  0
 10 14  1  0  0  0  0
 11 19  1  0  0  0  0
 11 26  1  0  0  0  0
 11 27  1  0  0  0  0
 12 16  1  0  0  0  0
 12 28  1  0  0  0  0
 13 17  2  0  0  0  0
 13 29  1  0  0  0  0
 14 18  2  0  0  0  0
 14 30  1  0  0  0  0
 15 31  1  0  0  0  0
 15 32  1  0  0  0  0
 15 33  1  0  0  0  0
 16 20  2  0  0  0  0
 16 21  1  0  0  0  0
 17 18  1  0  0  0  0
 18 34  1  0  0  0  0
 20 23  1  0  0  0  0
 20 35  1  0  0  0  0
 21 24  2  0  0  0  0
 21 36  1  0  0  0  0
 22 23  2  0  0  0  0
 22 24  1  0  0  0  0
 23 37  1  0  0  0  0
 24 38  1  0  0  0  0
 25 40  1  0  0  0  0
 25 41  1  0  0  0  0
 25 42  1  0  0  0  0
M  END
> <PUBCHEM_COMPOUND_CID>
5352

> <PUBCHEM_CONFORMER_RMSD>
0.8

> <PUBCHEM_CONFORMER_DIVERSEORDER>
2
3
5
1
4

> <PUBCHEM_MMFF94_PARTIAL_CHARGES>
34
1 0.24
10 0.03
11 0.2
12 -0.18
13 -0.15
14 -0.15
15 0.14
16 0.03
17 0.19
18 -0.15
19 0.66
2 -0.19
20 -0.15
21 -0.15
22 0.06
23 -0.15
24 -0.15
25 0.19
28 0.15
29 0.15
3 -0.65
30 0.15
34 0.15
35 0.15
36 0.15
37 0.15
38 0.15
39 0.5
4 -0.57
5 -0.5
6 -0.17
7 0.03
8 -0.14
9 -0.03

> <PUBCHEM_EFFECTIVE_ROTOR_COUNT>
4

> <PUBCHEM_PHARMACOPHORE_FEATURES>
7
1 3 acceptor
1 4 acceptor
1 5 acceptor
3 3 4 19 anion
5 6 7 8 9 10 rings
6 16 20 21 22 23 24 rings
6 7 10 13 14 17 18 rings

> <PUBCHEM_HEAVY_ATOM_COUNT>
25

> <PUBCHEM_ATOM_DEF_STEREO_COUNT>
0

> <PUBCHEM_ATOM_UDEF_STEREO_COUNT>
1

> <PUBCHEM_BOND_DEF_STEREO_COUNT>
0

> <PUBCHEM_BOND_UDEF_STEREO_COUNT>
1

> <PUBCHEM_ISOTOPIC_ATOM_COUNT>
0

> <PUBCHEM_COMPONENT_COUNT>
1

> <PUBCHEM_CACTVS_TAUTO_COUNT>
1

> <PUBCHEM_CONFORMER_ID>
000014E800000002

> <PUBCHEM_MMFF94_ENERGY>
76.4725

> <PUBCHEM_FEATURE_SELFOVERLAP>
35.661

> <PUBCHEM_SHAPE_FINGERPRINT>
10411042 1 18121499055938916230
10595046 47 18270114751481279127
11089746 13 18410292502170446383
11421498 54 11818987474852613958
11456790 92 17896604990400115265
11545043 162 17168723997934790875
12166972 35 18202561752912147947
12236239 1 18131913745940665535
12403260 363 18201442450317983241
12516196 113 18339642244367050026
12549972 3 17895489123088411833
12616971 3 18202848760307979759
13134695 92 18409167697475126054
13140716 1 18191309488621869690
13533116 47 18412828010196201537
13590594 115 18338241448972558808
13878862 14 18336247016874412357
14170010 4 18411416219933248370
14178342 30 17830457541575254530
14294032 229 16986330279317226849
14466204 15 18194120711856524041
14739800 52 17345747633048622072
14848178 96 18196938987671026425
15042514 8 17832140520568769490
15183329 4 18335136437279158439
15527383 91 18334860502066441751
15849732 13 17775001263399814494
15927050 60 17979921832999752334
16087824 20 18120938304744974221
17844677 252 18410019849315154451
17980427 23 17774168894004889593
1813 80 18200607882322101414
18335252 114 18266168441072173365
18681886 176 18202558475509833018
20511986 3 17917135187034784263
20612939 158 18409169934804719735
20832881 197 18261111816380126210
21033648 144 18335692905921273823
21033648 29 17313090965725735199
21033650 10 15266248910797435883
21267235 1 18263370205201521230
21279426 13 17825665543658167191
21304253 13 18341328908267892744
21304303 172 17986682467689515288
2132832 1 18131355176421383217
21452121 103 18337667619861513536
21641784 216 17751382611627137902
21792961 116 17750234704250659294
22122407 14 18267884830215416297
221357 26 18187922842415502855
22182313 1 17823396306002882508
22393880 68 18128264586526438903
23557571 272 14333416623142702019
23559900 14 17894636988618084165
24771293 8 18200014266813532144
2838139 119 18338231558702132325
335352 9 18335423461095503814
350125 39 18335986384825447037
474 4 18195527214888174360
495365 180 18340764956901269840
5104073 3 18262523701496195019
57724786 102 18040723605638645189
5895379 119 16843912813507081168
67856867 119 18272929466303000203
7364860 26 18339361972138885604
7471813 234 18131348600857808728
84936 182 18056765562039760752
9971528 1 18343864407772466970
9981440 41 17763458817901184208

> <PUBCHEM_SHAPE_MULTIPOLES>
493.46
13.45
3.44
1.03
16.09
3.67
-0.2
-1.11
1.08
-5.58
-0.36
0.68
0.11
0.12

> <PUBCHEM_SHAPE_SELFOVERLAP>
1065.044

> <PUBCHEM_SHAPE_VOLUME>
276.4

> <PUBCHEM_COORDINATE_TYPE>
2
5
10

$$$$
