132632
  -OEChem-10241303033D

 70 73  0     1  0  0  0  0  0999 V2000
   -0.2785    1.0730   -0.4050 O   0  0  0  0  0  0  0  0  0  0  0  0
    2.2129    0.4222    2.0907 O   0  0  0  0  0  0  0  0  0  0  0  0
   -4.3534    0.5505    1.6424 O   0  0  0  0  0  0  0  0  0  0  0  0
    1.5414    0.1612   -4.5899 O   0  0  0  0  0  0  0  0  0  0  0  0
   -4.9146    1.9380   -1.6703 O   0  0  0  0  0  0  0  0  0  0  0  0
    1.3758    2.3983    1.2242 N   0  0  0  0  0  0  0  0  0  0  0  0
   -1.6192    0.4699    1.3999 N   0  0  0  0  0  0  0  0  0  0  0  0
    4.5172    2.0648    2.3955 N   0  0  0  0  0  0  0  0  0  0  0  0
    1.2157   -2.7864    2.2158 N   0  0  0  0  0  0  0  0  0  0  0  0
   -4.4953   -0.4423   -0.4522 N   0  0  0  0  0  0  0  0  0  0  0  0
   -7.1925    1.6389   -1.7566 N   0  0  0  0  0  0  0  0  0  0  0  0
    0.0032    2.2096    1.6752 C   0  0  1  0  0  0  0  0  0  0  0  0
   -0.6451    3.5813    1.5271 C   0  0  0  0  0  0  0  0  0  0  0  0
    0.1271    4.2160    0.3730 C   0  0  0  0  0  0  0  0  0  0  0  0
    1.5422    3.6937    0.5701 C   0  0  0  0  0  0  0  0  0  0  0  0
   -0.6250    1.1960    0.7668 C   0  0  0  0  0  0  0  0  0  0  0  0
    2.3916    1.5086    1.5375 C   0  0  0  0  0  0  0  0  0  0  0  0
    3.7807    1.9437    1.1440 C   0  0  2  0  0  0  0  0  0  0  0  0
   -2.3945   -0.5537    0.7369 C   0  0  1  0  0  0  0  0  0  0  0  0
    4.4368    0.9220    0.2156 C   0  0  0  0  0  0  0  0  0  0  0  0
   -2.2689   -1.9126    1.4371 C   0  0  0  0  0  0  0  0  0  0  0  0
   -0.8537   -2.4114    1.5060 C   0  0  0  0  0  0  0  0  0  0  0  0
   -3.8479   -0.0919    0.7245 C   0  0  0  0  0  0  0  0  0  0  0  0
    3.6641    0.7184   -1.0668 C   0  0  0  0  0  0  0  0  0  0  0  0
   -0.1926   -3.2221    0.5414 C   0  0  0  0  0  0  0  0  0  0  0  0
    0.0378   -2.1603    2.5235 C   0  0  0  0  0  0  0  0  0  0  0  0
    1.1040   -3.4428    1.0109 C   0  0  0  0  0  0  0  0  0  0  0  0
    2.6713   -0.2591   -1.1358 C   0  0  0  0  0  0  0  0  0  0  0  0
    3.9435    1.5087   -2.1817 C   0  0  0  0  0  0  0  0  0  0  0  0
   -0.5741   -3.7912   -0.6899 C   0  0  0  0  0  0  0  0  0  0  0  0
    2.0420   -4.2072    0.3077 C   0  0  0  0  0  0  0  0  0  0  0  0
   -5.8659   -0.0846   -0.7386 C   0  0  0  0  0  0  0  0  0  0  0  0
    0.3536   -4.5581   -1.4042 C   0  0  0  0  0  0  0  0  0  0  0  0
    1.9581   -0.4465   -2.3199 C   0  0  0  0  0  0  0  0  0  0  0  0
    3.2304    1.3213   -3.3658 C   0  0  0  0  0  0  0  0  0  0  0  0
    1.6410   -4.7616   -0.9112 C   0  0  0  0  0  0  0  0  0  0  0  0
    2.2378    0.3438   -3.4348 C   0  0  0  0  0  0  0  0  0  0  0  0
   -5.9073    1.2518   -1.4431 C   0  0  0  0  0  0  0  0  0  0  0  0
   -0.0005    1.8547    2.7116 H   0  0  0  0  0  0  0  0  0  0  0  0
   -0.4811    4.1694    2.4383 H   0  0  0  0  0  0  0  0  0  0  0  0
   -1.7212    3.5424    1.3326 H   0  0  0  0  0  0  0  0  0  0  0  0
   -0.2757    3.8647   -0.5843 H   0  0  0  0  0  0  0  0  0  0  0  0
    0.0785    5.3085    0.3787 H   0  0  0  0  0  0  0  0  0  0  0  0
    2.1140    4.3452    1.2398 H   0  0  0  0  0  0  0  0  0  0  0  0
    2.0687    3.5883   -0.3825 H   0  0  0  0  0  0  0  0  0  0  0  0
    3.8112    2.9172    0.6545 H   0  0  0  0  0  0  0  0  0  0  0  0
   -1.8533    0.6870    2.3646 H   0  0  0  0  0  0  0  0  0  0  0  0
   -2.0357   -0.6453   -0.2957 H   0  0  0  0  0  0  0  0  0  0  0  0
   -2.8957   -2.6534    0.9246 H   0  0  0  0  0  0  0  0  0  0  0  0
   -2.6686   -1.8425    2.4583 H   0  0  0  0  0  0  0  0  0  0  0  0
    5.4613    1.2357   -0.0271 H   0  0  0  0  0  0  0  0  0  0  0  0
    4.5434   -0.0498    0.7180 H   0  0  0  0  0  0  0  0  0  0  0  0
    5.4859    2.3163    2.2019 H   0  0  0  0  0  0  0  0  0  0  0  0
    4.1316    2.8285    2.9501 H   0  0  0  0  0  0  0  0  0  0  0  0
   -0.0579   -1.5915    3.4381 H   0  0  0  0  0  0  0  0  0  0  0  0
    2.0481   -2.7683    2.7888 H   0  0  0  0  0  0  0  0  0  0  0  0
   -3.9911   -0.9662   -1.1616 H   0  0  0  0  0  0  0  0  0  0  0  0
    2.4481   -0.8890   -0.2803 H   0  0  0  0  0  0  0  0  0  0  0  0
    4.7127    2.2752   -2.1387 H   0  0  0  0  0  0  0  0  0  0  0  0
   -1.5728   -3.6405   -1.0895 H   0  0  0  0  0  0  0  0  0  0  0  0
    3.0447   -4.3651    0.6902 H   0  0  0  0  0  0  0  0  0  0  0  0
   -6.4391   -0.0275    0.1920 H   0  0  0  0  0  0  0  0  0  0  0  0
   -6.2885   -0.8570   -1.3878 H   0  0  0  0  0  0  0  0  0  0  0  0
    0.0653   -4.9983   -2.3551 H   0  0  0  0  0  0  0  0  0  0  0  0
    2.3457   -5.3598   -1.4830 H   0  0  0  0  0  0  0  0  0  0  0  0
    1.1866   -1.2101   -2.3675 H   0  0  0  0  0  0  0  0  0  0  0  0
    3.4571    1.9441   -4.2270 H   0  0  0  0  0  0  0  0  0  0  0  0
    1.8647    0.7923   -5.2557 H   0  0  0  0  0  0  0  0  0  0  0  0
   -7.9999    1.0608   -1.5459 H   0  0  0  0  0  0  0  0  0  0  0  0
   -7.3729    2.5234   -2.2198 H   0  0  0  0  0  0  0  0  0  0  0  0
  1 16  2  0  0  0  0
  2 17  2  0  0  0  0
  3 23  2  0  0  0  0
  4 37  1  0  0  0  0
  4 68  1  0  0  0  0
  5 38  2  0  0  0  0
  6 12  1  0  0  0  0
  6 15  1  0  0  0  0
  6 17  1  0  0  0  0
  7 16  1  0  0  0  0
  7 19  1  0  0  0  0
  7 47  1  0  0  0  0
  8 18  1  0  0  0  0
  8 53  1  0  0  0  0
  8 54  1  0  0  0  0
  9 26  1  0  0  0  0
  9 27  1  0  0  0  0
  9 56  1  0  0  0  0
 10 23  1  0  0  0  0
 10 32  1  0  0  0  0
 10 57  1  0  0  0  0
 11 38  1  0  0  0  0
 11 69  1  0  0  0  0
 11 70  1  0  0  0  0
 12 13  1  0  0  0  0
 12 16  1  0  0  0  0
 12 39  1  0  0  0  0
 13 14  1  0  0  0  0
 13 40  1  0  0  0  0
 13 41  1  0  0  0  0
 14 15  1  0  0  0  0
 14 42  1  0  0  0  0
 14 43  1  0  0  0  0
 15 44  1  0  0  0  0
 15 45  1  0  0  0  0
 17 18  1  0  0  0  0
 18 20  1  0  0  0  0
 18 46  1  0  0  0  0
 19 21  1  0  0  0  0
 19 23  1  0  0  0  0
 19 48  1  0  0  0  0
 20 24  1  0  0  0  0
 20 51  1  0  0  0  0
 20 52  1  0  0  0  0
 21 22  1  0  0  0  0
 21 49  1  0  0  0  0
 21 50  1  0  0  0  0
 22 25  1  0  0  0  0
 22 26  2  0  0  0  0
 24 28  2  0  0  0  0
 24 29  1  0  0  0  0
 25 27  1  0  0  0  0
 25 30  2  0  0  0  0
 26 55  1  0  0  0  0
 27 31  2  0  0  0  0
 28 34  1  0  0  0  0
 28 58  1  0  0  0  0
 29 35  2  0  0  0  0
 29 59  1  0  0  0  0
 30 33  1  0  0  0  0
 30 60  1  0  0  0  0
 31 36  1  0  0  0  0
 31 61  1  0  0  0  0
 32 38  1  0  0  0  0
 32 62  1  0  0  0  0
 32 63  1  0  0  0  0
 33 36  2  0  0  0  0
 33 64  1  0  0  0  0
 34 37  2  0  0  0  0
 34 66  1  0  0  0  0
 35 37  1  0  0  0  0
 35 67  1  0  0  0  0
 36 65  1  0  0  0  0
M  END
> <PUBCHEM_COMPOUND_CID>
132632

> <PUBCHEM_CONFORMER_RMSD>
1.2

> <PUBCHEM_CONFORMER_DIVERSEORDER>
1
43
5
39
44
112
78
108
67
52
24
3
91
4
86
48
10
75
115
65
92
98
59
50
57
83
22
51
101
42
58
20
56
79
45
36
60
89
47
114
105
14
107
17
18
32
103
80
113
29
68
96
110
84
23
100
73
40
87
94
7
49
9
61
53
27
46
102
38
72
55
28
104
66
71
34
26
25
21
54
82
63
74
8
41
106
99
85
95
69
13
11
33
15
93
64
111
88
6
70
37
77
97
62
12
81
90
31
109
16
30
19
2
76
35

> <PUBCHEM_MMFF94_PARTIAL_CHARGES>
52
1 -0.57
10 -0.73
11 -0.8
12 0.36
15 0.3
16 0.57
17 0.57
18 0.33
19 0.36
2 -0.57
20 0.14
21 0.18
22 -0.18
23 0.57
24 -0.14
26 -0.3
27 -0.15
28 -0.15
29 -0.15
3 -0.57
30 -0.15
31 -0.15
32 0.36
33 -0.15
34 -0.15
35 -0.15
36 -0.15
37 0.08
38 0.57
4 -0.53
47 0.37
5 -0.57
53 0.36
54 0.36
55 0.15
56 0.27
57 0.37
58 0.15
59 0.15
6 -0.66
60 0.15
61 0.15
64 0.15
65 0.15
66 0.15
67 0.15
68 0.45
69 0.37
7 -0.73
70 0.37
8 -0.99
9 0.03

> <PUBCHEM_EFFECTIVE_ROTOR_COUNT>
14

> <PUBCHEM_PHARMACOPHORE_FEATURES>
16
1 1 acceptor
1 10 donor
1 11 donor
1 2 acceptor
1 3 acceptor
1 4 donor
1 5 acceptor
1 7 donor
1 8 cation
1 8 donor
1 9 cation
1 9 donor
5 6 12 13 14 15 rings
5 9 22 25 26 27 rings
6 24 28 29 34 35 37 rings
6 25 27 30 31 33 36 rings

> <PUBCHEM_HEAVY_ATOM_COUNT>
38

> <PUBCHEM_ATOM_DEF_STEREO_COUNT>
3

> <PUBCHEM_ATOM_UDEF_STEREO_COUNT>
0

> <PUBCHEM_BOND_DEF_STEREO_COUNT>
0

> <PUBCHEM_BOND_UDEF_STEREO_COUNT>
0

> <PUBCHEM_ISOTOPIC_ATOM_COUNT>
0

> <PUBCHEM_COMPONENT_COUNT>
1

> <PUBCHEM_CACTVS_TAUTO_COUNT>
16

> <PUBCHEM_CONFORMER_ID>
0002061800000001

> <PUBCHEM_MMFF94_ENERGY>
80.5551

> <PUBCHEM_FEATURE_SELFOVERLAP>
81.292

> <PUBCHEM_SHAPE_FINGERPRINT>
10079526 769 17770496431607381921
10675989 125 18408886217808510777
11513181 2 17479751420359804078
12156800 1 15909624935840092918
133893 2 17680736746773372842
13636023 20 17774421864069828081
13642711 20 18342728637782527453
14068700 675 17833259831732360935
15484559 13 18341317930084233255
19315092 285 15051465889753362836
20764821 26 18269287918257215082
3298306 158 18335417997896771843
35225 105 18265058097135878622
4017518 198 18201144560213676778
484985 159 14829143371839067460
513532 50 17917131841540227331
66674814 147 16988855981093459055

> <PUBCHEM_SHAPE_MULTIPOLES>
722.79
9.51
6.16
3.43
16.85
5.66
-3.06
-7.62
-5.58
-2.14
1.38
-2.54
-0.7
1.65

> <PUBCHEM_SHAPE_SELFOVERLAP>
1551.631

> <PUBCHEM_SHAPE_VOLUME>
397.6

> <PUBCHEM_COORDINATE_TYPE>
2
5
10

$$$$
