197485
  -OEChem-10241303053D

 56 58  0     1  0  0  0  0  0999 V2000
    2.4592   -5.2438   -0.5477 O   0  0  0  0  0  0  0  0  0  0  0  0
   -2.8170   -1.9303    2.3005 O   0  0  0  0  0  0  0  0  0  0  0  0
   -6.5439   -1.0812   -0.9854 O   0  0  0  0  0  0  0  0  0  0  0  0
   -4.6300   -1.5948   -2.0918 O   0  0  0  0  0  0  0  0  0  0  0  0
    0.6445    2.0189   -1.4714 O   0  0  0  0  0  0  0  0  0  0  0  0
   -3.8918    3.9661   -0.7321 O   0  0  0  0  0  0  0  0  0  0  0  0
   -4.8586    3.3917    1.2383 O   0  0  0  0  0  0  0  0  0  0  0  0
   -3.1161   -1.2518    0.1036 N   0  0  0  0  0  0  0  0  0  0  0  0
    3.7839    3.4382    0.5732 N   0  0  0  0  0  0  0  0  0  0  0  0
    1.6545    3.7936   -0.4319 N   0  0  0  0  0  0  0  0  0  0  0  0
    2.8075    5.5117    0.6687 N   0  0  0  0  0  0  0  0  0  0  0  0
    3.1673   -2.9838    0.0433 C   0  0  1  0  0  0  0  0  0  0  0  0
    3.8005   -2.0260   -0.9995 C   0  0  0  0  0  0  0  0  0  0  0  0
    1.7136   -2.6610    0.3366 C   0  0  0  0  0  0  0  0  0  0  0  0
    3.8020   -0.5928   -0.5854 C   0  0  0  0  0  0  0  0  0  0  0  0
   -4.5057   -0.8760    0.2319 C   0  0  1  0  0  0  0  0  0  0  0  0
    2.7209    0.2262   -0.9108 C   0  0  0  0  0  0  0  0  0  0  0  0
   -4.6867    0.5830    0.6684 C   0  0  0  0  0  0  0  0  0  0  0  0
    0.7692   -2.7000   -0.6892 C   0  0  0  0  0  0  0  0  0  0  0  0
    1.3218   -2.3264    1.6329 C   0  0  0  0  0  0  0  0  0  0  0  0
    4.8839   -0.0760    0.1279 C   0  0  0  0  0  0  0  0  0  0  0  0
    2.7306    1.5670   -0.5169 C   0  0  0  0  0  0  0  0  0  0  0  0
   -0.9586   -2.0698    0.8774 C   0  0  0  0  0  0  0  0  0  0  0  0
    3.3619   -4.4259   -0.3989 C   0  0  0  0  0  0  0  0  0  0  0  0
    3.8129    2.0938    0.1993 C   0  0  0  0  0  0  0  0  0  0  0  0
   -0.5668   -2.4045   -0.4189 C   0  0  0  0  0  0  0  0  0  0  0  0
   -0.0143   -2.0309    1.9032 C   0  0  0  0  0  0  0  0  0  0  0  0
    4.8904    1.2638    0.5198 C   0  0  0  0  0  0  0  0  0  0  0  0
   -2.3516   -1.7613    1.1596 C   0  0  0  0  0  0  0  0  0  0  0  0
   -4.1459    1.6423   -0.3004 C   0  0  0  0  0  0  0  0  0  0  0  0
   -5.1944   -1.2132   -1.0746 C   0  0  0  0  0  0  0  0  0  0  0  0
    1.5960    2.4742   -0.8443 C   0  0  0  0  0  0  0  0  0  0  0  0
    2.6989    4.2148    0.2334 C   0  0  0  0  0  0  0  0  0  0  0  0
   -4.3378    3.0642    0.1812 C   0  0  0  0  0  0  0  0  0  0  0  0
    3.7414   -2.8946    0.9763 H   0  0  0  0  0  0  0  0  0  0  0  0
    4.8343   -2.3429   -1.1974 H   0  0  0  0  0  0  0  0  0  0  0  0
    3.2991   -2.1286   -1.9718 H   0  0  0  0  0  0  0  0  0  0  0  0
   -4.9474   -1.5276    0.9966 H   0  0  0  0  0  0  0  0  0  0  0  0
    1.8876   -0.1707   -1.4827 H   0  0  0  0  0  0  0  0  0  0  0  0
   -4.2024    0.7237    1.6438 H   0  0  0  0  0  0  0  0  0  0  0  0
   -5.7548    0.7771    0.8321 H   0  0  0  0  0  0  0  0  0  0  0  0
    1.0531   -2.9678   -1.7034 H   0  0  0  0  0  0  0  0  0  0  0  0
    2.0460   -2.2900    2.4423 H   0  0  0  0  0  0  0  0  0  0  0  0
    5.7290   -0.7083    0.3878 H   0  0  0  0  0  0  0  0  0  0  0  0
    4.4115   -4.7245   -0.5686 H   0  0  0  0  0  0  0  0  0  0  0  0
   -1.2739   -2.4775   -1.2400 H   0  0  0  0  0  0  0  0  0  0  0  0
   -0.2980   -1.7677    2.9189 H   0  0  0  0  0  0  0  0  0  0  0  0
   -2.6734   -1.0548   -0.7881 H   0  0  0  0  0  0  0  0  0  0  0  0
    5.7399    1.6524    1.0756 H   0  0  0  0  0  0  0  0  0  0  0  0
   -3.0718    1.4890   -0.4524 H   0  0  0  0  0  0  0  0  0  0  0  0
   -4.6549    1.5489   -1.2661 H   0  0  0  0  0  0  0  0  0  0  0  0
    4.5666    3.8175    1.0917 H   0  0  0  0  0  0  0  0  0  0  0  0
   -6.9902   -1.3153   -1.8269 H   0  0  0  0  0  0  0  0  0  0  0  0
    3.6204    5.8307    1.1842 H   0  0  0  0  0  0  0  0  0  0  0  0
    2.0757    6.1896    0.4855 H   0  0  0  0  0  0  0  0  0  0  0  0
   -4.0304    4.8895   -0.4315 H   0  0  0  0  0  0  0  0  0  0  0  0
  1 24  2  0  0  0  0
  2 29  2  0  0  0  0
  3 31  1  0  0  0  0
  3 53  1  0  0  0  0
  4 31  2  0  0  0  0
  5 32  2  0  0  0  0
  6 34  1  0  0  0  0
  6 56  1  0  0  0  0
  7 34  2  0  0  0  0
  8 16  1  0  0  0  0
  8 29  1  0  0  0  0
  8 48  1  0  0  0  0
  9 25  1  0  0  0  0
  9 33  1  0  0  0  0
  9 52  1  0  0  0  0
 10 32  1  0  0  0  0
 10 33  2  0  0  0  0
 11 33  1  0  0  0  0
 11 54  1  0  0  0  0
 11 55  1  0  0  0  0
 12 13  1  0  0  0  0
 12 14  1  0  0  0  0
 12 24  1  0  0  0  0
 12 35  1  0  0  0  0
 13 15  1  0  0  0  0
 13 36  1  0  0  0  0
 13 37  1  0  0  0  0
 14 19  2  0  0  0  0
 14 20  1  0  0  0  0
 15 17  2  0  0  0  0
 15 21  1  0  0  0  0
 16 18  1  0  0  0  0
 16 31  1  0  0  0  0
 16 38  1  0  0  0  0
 17 22  1  0  0  0  0
 17 39  1  0  0  0  0
 18 30  1  0  0  0  0
 18 40  1  0  0  0  0
 18 41  1  0  0  0  0
 19 26  1  0  0  0  0
 19 42  1  0  0  0  0
 20 27  2  0  0  0  0
 20 43  1  0  0  0  0
 21 28  2  0  0  0  0
 21 44  1  0  0  0  0
 22 25  2  0  0  0  0
 22 32  1  0  0  0  0
 23 26  2  0  0  0  0
 23 27  1  0  0  0  0
 23 29  1  0  0  0  0
 24 45  1  0  0  0  0
 25 28  1  0  0  0  0
 26 46  1  0  0  0  0
 27 47  1  0  0  0  0
 28 49  1  0  0  0  0
 30 34  1  0  0  0  0
 30 50  1  0  0  0  0
 30 51  1  0  0  0  0
M  END
> <PUBCHEM_COMPOUND_CID>
197485

> <PUBCHEM_CONFORMER_RMSD>
1

> <PUBCHEM_CONFORMER_DIVERSEORDER>
1
145
16
83
55
95
30
91
133
125
73
117
65
102
12
79
129
111
104
99
107
28
103
138
9
46
128
26
71
123
142
140
131
38
19
106
127
5
70
135
52
77
21
43
74
105
94
110
69
141
89
45
17
121
100
109
144
8
72
6
146
27
3
84
85
76
136
25
122
33
126
119
132
57
124
40
47
20
81
64
10
59
60
39
78
68
63
23
87
48
4
80
86
137
115
54
143
2
134
130
31
61
36
41
58
51
67
101
120
97
11
118
15
13
88
96
53
50
14
114
32
98
18
139
66
93
62
112
49
7
24
29
108
44
82
113
75
116
37
34
22
92
42
35
56
90

> <PUBCHEM_MMFF94_PARTIAL_CHARGES>
47
1 -0.57
10 -0.66
11 -0.85
12 0.2
13 0.14
14 -0.14
15 -0.14
16 0.36
17 -0.15
19 -0.15
2 -0.57
20 -0.15
21 -0.15
22 0.09
23 0.09
24 0.45
25 0.1
26 -0.15
27 -0.15
28 -0.15
29 0.54
3 -0.65
30 0.06
31 0.66
32 0.69
33 0.55
34 0.66
39 0.15
4 -0.57
42 0.15
43 0.15
44 0.15
45 0.06
46 0.15
47 0.15
48 0.37
49 0.15
5 -0.57
52 0.4
53 0.5
54 0.4
55 0.4
56 0.5
6 -0.65
7 -0.57
8 -0.73
9 -0.55

> <PUBCHEM_EFFECTIVE_ROTOR_COUNT>
11

> <PUBCHEM_PHARMACOPHORE_FEATURES>
16
1 1 acceptor
1 10 donor
1 11 donor
1 2 acceptor
1 3 acceptor
1 4 acceptor
1 5 acceptor
1 6 acceptor
1 7 acceptor
1 8 donor
1 9 donor
3 3 4 31 anion
3 6 7 34 anion
6 14 19 20 23 26 27 rings
6 15 17 21 22 25 28 rings
6 9 10 22 25 32 33 rings

> <PUBCHEM_HEAVY_ATOM_COUNT>
34

> <PUBCHEM_ATOM_DEF_STEREO_COUNT>
1

> <PUBCHEM_ATOM_UDEF_STEREO_COUNT>
1

> <PUBCHEM_BOND_DEF_STEREO_COUNT>
0

> <PUBCHEM_BOND_UDEF_STEREO_COUNT>
0

> <PUBCHEM_ISOTOPIC_ATOM_COUNT>
0

> <PUBCHEM_COMPONENT_COUNT>
1

> <PUBCHEM_CACTVS_TAUTO_COUNT>
30

> <PUBCHEM_CONFORMER_ID>
0003036D00000001

> <PUBCHEM_MMFF94_ENERGY>
91.8399

> <PUBCHEM_FEATURE_SELFOVERLAP>
81.473

> <PUBCHEM_SHAPE_FINGERPRINT>
10439779 11 18410003343365309832
10864689 126 17182494001744773628
11513181 2 18271243824683619407
12925494 130 18336270021020092241
13617811 41 17261579090071748491
14251764 38 18410859905609607081
14466204 15 18408884049192255104
15001296 14 18341609369500634943
15082195 135 18268412574174082287
15320467 1 18411138056371392317
20567600 299 18410299103208158642
21475661 188 18042401516148601458
3388396 114 18197771309937180677
463206 1 18048888389728620289
508706 21 18040724636520057253
6371009 1 18338503257219888457

> <PUBCHEM_SHAPE_MULTIPOLES>
638.69
12.32
7.3
1.43
15.35
4.78
-0.27
3.59
1.79
-5.69
-0.33
1.05
-0.7
0.38

> <PUBCHEM_SHAPE_SELFOVERLAP>
1370.566

> <PUBCHEM_SHAPE_VOLUME>
347.7

> <PUBCHEM_COORDINATE_TYPE>
2
5
10

$$$$
