66425
  -OEChem-10241303023D

 47 50  0     1  0  0  0  0  0999 V2000
    5.2087    1.3699    0.2746 O   0  0  0  0  0  0  0  0  0  0  0  0
   -5.6167   -0.3792    0.4712 O   0  0  0  0  0  0  0  0  0  0  0  0
    2.8542    0.6468    0.1548 C   0  0  1  0  0  0  0  0  0  0  0  0
    2.2583   -0.6671   -0.3894 C   0  0  2  0  0  0  0  0  0  0  0  0
    0.8003   -0.8561    0.0284 C   0  0  1  0  0  0  0  0  0  0  0  0
   -0.0431    0.3155   -0.5601 C   0  0  2  0  0  0  0  0  0  0  0  0
    4.2958    0.5019   -0.3687 C   0  0  2  0  0  0  0  0  0  0  0  0
    2.0635    1.8147   -0.4475 C   0  0  0  0  0  0  0  0  0  0  0  0
    3.2922   -1.7172    0.0075 C   0  0  0  0  0  0  0  0  0  0  0  0
    0.5541    1.6924   -0.1630 C   0  0  0  0  0  0  0  0  0  0  0  0
    4.6380   -0.9791   -0.1133 C   0  0  0  0  0  0  0  0  0  0  0  0
    0.2164   -2.1832   -0.4596 C   0  0  0  0  0  0  0  0  0  0  0  0
    2.8522    0.7705    1.7001 C   0  0  0  0  0  0  0  0  0  0  0  0
   -1.5269    0.1397   -0.2488 C   0  0  0  0  0  0  0  0  0  0  0  0
   -1.1863   -2.3720    0.1101 C   0  0  0  0  0  0  0  0  0  0  0  0
   -2.0557   -1.1413    0.0233 C   0  0  0  0  0  0  0  0  0  0  0  0
   -2.4173    1.2261   -0.3125 C   0  0  0  0  0  0  0  0  0  0  0  0
   -3.4308   -1.2926    0.2746 C   0  0  0  0  0  0  0  0  0  0  0  0
   -3.7827    1.0602   -0.0700 C   0  0  0  0  0  0  0  0  0  0  0  0
   -4.2892   -0.1981    0.2284 C   0  0  0  0  0  0  0  0  0  0  0  0
   -4.6852    2.2481   -0.1401 C   0  0  0  0  0  0  0  0  0  0  0  0
    2.2722   -0.6288   -1.4917 H   0  0  0  0  0  0  0  0  0  0  0  0
    0.7286   -0.8477    1.1237 H   0  0  0  0  0  0  0  0  0  0  0  0
    0.0254    0.2552   -1.6575 H   0  0  0  0  0  0  0  0  0  0  0  0
    4.3372    0.7068   -1.4460 H   0  0  0  0  0  0  0  0  0  0  0  0
    2.2082    1.8422   -1.5355 H   0  0  0  0  0  0  0  0  0  0  0  0
    2.4344    2.7728   -0.0642 H   0  0  0  0  0  0  0  0  0  0  0  0
    3.2598   -2.5933   -0.6481 H   0  0  0  0  0  0  0  0  0  0  0  0
    3.1378   -2.0656    1.0347 H   0  0  0  0  0  0  0  0  0  0  0  0
    0.3556    1.8909    0.8972 H   0  0  0  0  0  0  0  0  0  0  0  0
    0.0592    2.4956   -0.7210 H   0  0  0  0  0  0  0  0  0  0  0  0
    5.2384   -1.1133    0.7936 H   0  0  0  0  0  0  0  0  0  0  0  0
    5.2274   -1.3769   -0.9469 H   0  0  0  0  0  0  0  0  0  0  0  0
    0.8400   -3.0295   -0.1506 H   0  0  0  0  0  0  0  0  0  0  0  0
    0.1795   -2.1975   -1.5565 H   0  0  0  0  0  0  0  0  0  0  0  0
    3.2928    1.7252    2.0108 H   0  0  0  0  0  0  0  0  0  0  0  0
    1.8461    0.7353    2.1262 H   0  0  0  0  0  0  0  0  0  0  0  0
    3.4307   -0.0224    2.1843 H   0  0  0  0  0  0  0  0  0  0  0  0
   -1.1070   -2.6532    1.1681 H   0  0  0  0  0  0  0  0  0  0  0  0
   -1.6683   -3.2051   -0.4160 H   0  0  0  0  0  0  0  0  0  0  0  0
    6.0983    1.1516   -0.0516 H   0  0  0  0  0  0  0  0  0  0  0  0
   -2.0521    2.2180   -0.5625 H   0  0  0  0  0  0  0  0  0  0  0  0
   -3.8324   -2.2772    0.5060 H   0  0  0  0  0  0  0  0  0  0  0  0
   -5.1706    2.4211    0.8262 H   0  0  0  0  0  0  0  0  0  0  0  0
   -4.1351    3.1619   -0.3910 H   0  0  0  0  0  0  0  0  0  0  0  0
   -5.4466    2.1090   -0.9148 H   0  0  0  0  0  0  0  0  0  0  0  0
   -6.0999    0.4596    0.4139 H   0  0  0  0  0  0  0  0  0  0  0  0
  1  7  1  0  0  0  0
  1 41  1  0  0  0  0
  2 20  1  0  0  0  0
  2 47  1  0  0  0  0
  3  4  1  0  0  0  0
  3  7  1  0  0  0  0
  3  8  1  0  0  0  0
  3 13  1  0  0  0  0
  4  5  1  0  0  0  0
  4  9  1  0  0  0  0
  4 22  1  0  0  0  0
  5  6  1  0  0  0  0
  5 12  1  0  0  0  0
  5 23  1  0  0  0  0
  6 10  1  0  0  0  0
  6 14  1  0  0  0  0
  6 24  1  0  0  0  0
  7 11  1  0  0  0  0
  7 25  1  0  0  0  0
  8 10  1  0  0  0  0
  8 26  1  0  0  0  0
  8 27  1  0  0  0  0
  9 11  1  0  0  0  0
  9 28  1  0  0  0  0
  9 29  1  0  0  0  0
 10 30  1  0  0  0  0
 10 31  1  0  0  0  0
 11 32  1  0  0  0  0
 11 33  1  0  0  0  0
 12 15  1  0  0  0  0
 12 34  1  0  0  0  0
 12 35  1  0  0  0  0
 13 36  1  0  0  0  0
 13 37  1  0  0  0  0
 13 38  1  0  0  0  0
 14 16  2  0  0  0  0
 14 17  1  0  0  0  0
 15 16  1  0  0  0  0
 15 39  1  0  0  0  0
 15 40  1  0  0  0  0
 16 18  1  0  0  0  0
 17 19  2  0  0  0  0
 17 42  1  0  0  0  0
 18 20  2  0  0  0  0
 18 43  1  0  0  0  0
 19 20  1  0  0  0  0
 19 21  1  0  0  0  0
 21 44  1  0  0  0  0
 21 45  1  0  0  0  0
 21 46  1  0  0  0  0
M  END
> <PUBCHEM_COMPOUND_CID>
66425

> <PUBCHEM_CONFORMER_RMSD>
0.6

> <PUBCHEM_CONFORMER_DIVERSEORDER>
1

> <PUBCHEM_MMFF94_PARTIAL_CHARGES>
16
1 -0.68
14 -0.14
15 0.14
16 -0.14
17 -0.15
18 -0.15
19 -0.14
2 -0.53
20 0.08
21 0.14
41 0.4
42 0.15
43 0.15
47 0.45
6 0.14
7 0.28

> <PUBCHEM_EFFECTIVE_ROTOR_COUNT>
1.4

> <PUBCHEM_PHARMACOPHORE_FEATURES>
7
1 1 acceptor
1 1 donor
1 2 donor
5 3 4 7 9 11 rings
6 14 16 17 18 19 20 rings
6 3 4 5 6 8 10 rings
6 5 6 12 14 15 16 rings

> <PUBCHEM_HEAVY_ATOM_COUNT>
21

> <PUBCHEM_ATOM_DEF_STEREO_COUNT>
5

> <PUBCHEM_ATOM_UDEF_STEREO_COUNT>
0

> <PUBCHEM_BOND_DEF_STEREO_COUNT>
0

> <PUBCHEM_BOND_UDEF_STEREO_COUNT>
0

> <PUBCHEM_ISOTOPIC_ATOM_COUNT>
0

> <PUBCHEM_COMPONENT_COUNT>
1

> <PUBCHEM_CACTVS_TAUTO_COUNT>
9

> <PUBCHEM_CONFORMER_ID>
0001037900000001

> <PUBCHEM_MMFF94_ENERGY>
72.8269

> <PUBCHEM_FEATURE_SELFOVERLAP>
35.62

> <PUBCHEM_SHAPE_FINGERPRINT>
10 15 18263076773114759368
10411042 1 17113818488822191943
10616163 171 18265900335479549670
10646746 165 18411420600636268927
10967382 1 18410293575500943718
11132069 177 18408600366322499893
11578080 2 13900257394108233824
12011746 2 18412549790751908614
12107183 9 17832140520151707457
12236239 1 17603305947195908468
12251169 10 18335139833912351007
12390115 104 18270979950741129057
12403259 226 18269270334903672153
12403259 415 18343861121721598065
12403260 363 18410290346123120765
12403814 3 17458339753951870493
12500047 106 18343015635923714882
12507560 40 18411700988880726125
12592029 89 18335141964395939467
12788726 201 17774729662589964296
13140716 1 18120650223659324787
13402501 40 18411420583350898269
13544592 145 18272379646370785534
13675066 3 18343299288195624049
14178342 30 18051674827593343386
14341114 176 18409738356588641627
14790565 3 18336273413490406972
14866123 147 17118896050440044234
15042514 8 18192156112855143715
15196674 1 18410012109008458175
15256400 18 18410294683586623301
15536298 74 18413671300901565542
1601671 61 18408042905522328116
16945 1 18194395821654902038
17349148 13 18413384345894517557
17804303 29 18409733966878935549
1813 80 16877946027128548220
18186145 218 17417808469570183571
192875 21 13830136121851372082
19591789 44 18265051332130026438
200 152 18131627890191771445
20510252 161 18342459218531427865
20645477 70 18131355168168922054
21033648 29 18201427086856033881
21267235 1 18409177601168673959
21279426 13 18268151946393386254
21421861 104 17823122442425573658
23402539 116 18343295964275987709
23558518 356 17755018936518111890
23559900 14 18341050714403668086
3004659 81 18261397698752898654
335352 9 18337672988417360670
34934 24 18410288138573324894
350125 39 18410016559196190845
351380 180 18410011052884405159
3545911 37 18412829105207003748
4214541 1 18409168792480796277
495365 180 17274530010386494722
5104073 3 18336548226924700201
542803 24 17275108331558265833
59755656 215 18336264549157358327
69090 78 18341610442894428903
77779 3 18409450284315362878
9709674 26 18410862095948229431

> <PUBCHEM_SHAPE_MULTIPOLES>
420.43
10.38
2.33
0.83
2.61
0.28
0.22
-2.47
1.03
0.48
-0.13
-0.4
-0.11
0.47

> <PUBCHEM_SHAPE_SELFOVERLAP>
914.246

> <PUBCHEM_SHAPE_VOLUME>
229.6

> <PUBCHEM_COORDINATE_TYPE>
2
5
10

$$$$
