196795
  -OEChem-10241302593D

 26 27  0     0  0  0  0  0  0999 V2000
   -5.3213    1.3407   -0.4231 Br  0  0  0  0  0  0  0  0  0  0  0  0
   -1.2639    2.4558    0.3756 Cl  0  0  0  0  0  0  0  0  0  0  0  0
   -0.7972   -1.5224    0.2955 O   0  0  0  0  0  0  0  0  0  0  0  0
   -2.6998   -0.1241    0.5281 O   0  0  0  0  0  0  0  0  0  0  0  0
    0.9801   -2.9043    0.0767 O   0  0  0  0  0  0  0  0  0  0  0  0
    5.0406    0.0993   -0.3818 N   0  0  0  0  0  0  0  0  0  0  0  0
    0.8848    0.7183    0.1117 C   0  0  0  0  0  0  0  0  0  0  0  0
    1.4154   -0.5782    0.0410 C   0  0  0  0  0  0  0  0  0  0  0  0
   -0.5639    0.8772    0.2832 C   0  0  0  0  0  0  0  0  0  0  0  0
    2.7935   -0.7837   -0.1225 C   0  0  0  0  0  0  0  0  0  0  0  0
    1.7734    1.8023    0.0138 C   0  0  0  0  0  0  0  0  0  0  0  0
   -1.3323   -0.2190    0.3664 C   0  0  0  0  0  0  0  0  0  0  0  0
    3.6556    0.3054   -0.2173 C   0  0  0  0  0  0  0  0  0  0  0  0
    0.5347   -1.7654    0.1371 C   0  0  0  0  0  0  0  0  0  0  0  0
    3.1461    1.5969   -0.1493 C   0  0  0  0  0  0  0  0  0  0  0  0
   -3.3760   -0.7417   -0.5494 C   0  0  0  0  0  0  0  0  0  0  0  0
   -4.8698   -0.5572   -0.3857 C   0  0  0  0  0  0  0  0  0  0  0  0
    3.2007   -1.7909   -0.1767 H   0  0  0  0  0  0  0  0  0  0  0  0
    1.4245    2.8304    0.0612 H   0  0  0  0  0  0  0  0  0  0  0  0
    3.8057    2.4581   -0.2216 H   0  0  0  0  0  0  0  0  0  0  0  0
   -3.1634   -1.8179   -0.5640 H   0  0  0  0  0  0  0  0  0  0  0  0
   -3.0466   -0.3084   -1.5034 H   0  0  0  0  0  0  0  0  0  0  0  0
   -5.4319   -1.0339   -1.1922 H   0  0  0  0  0  0  0  0  0  0  0  0
   -5.2200   -0.9217    0.5838 H   0  0  0  0  0  0  0  0  0  0  0  0
    5.4107   -0.8406   -0.4307 H   0  0  0  0  0  0  0  0  0  0  0  0
    5.6656    0.8914   -0.4498 H   0  0  0  0  0  0  0  0  0  0  0  0
  1 17  1  0  0  0  0
  2  9  1  0  0  0  0
  3 12  1  0  0  0  0
  3 14  1  0  0  0  0
  4 12  1  0  0  0  0
  4 16  1  0  0  0  0
  5 14  2  0  0  0  0
  6 13  1  0  0  0  0
  6 25  1  0  0  0  0
  6 26  1  0  0  0  0
  7  8  2  0  0  0  0
  7  9  1  0  0  0  0
  7 11  1  0  0  0  0
  8 10  1  0  0  0  0
  8 14  1  0  0  0  0
  9 12  2  0  0  0  0
 10 13  2  0  0  0  0
 10 18  1  0  0  0  0
 11 15  2  0  0  0  0
 11 19  1  0  0  0  0
 13 15  1  0  0  0  0
 15 20  1  0  0  0  0
 16 17  1  0  0  0  0
 16 21  1  0  0  0  0
 16 22  1  0  0  0  0
 17 23  1  0  0  0  0
 17 24  1  0  0  0  0
M  END
> <PUBCHEM_COMPOUND_CID>
196795

> <PUBCHEM_CONFORMER_RMSD>
0.6

> <PUBCHEM_CONFORMER_DIVERSEORDER>
1
4
9
13
8
14
7
2
5
12
10
6
3
15
11

> <PUBCHEM_MMFF94_PARTIAL_CHARGES>
22
1 -0.23
10 -0.15
11 -0.15
12 0.15
13 0.1
14 0.63
15 -0.15
16 0.28
17 0.23
18 0.15
19 0.15
2 -0.14
20 0.15
25 0.4
26 0.4
3 -0.23
4 -0.36
5 -0.57
6 -0.9
7 0.03
8 0.09
9 0.11

> <PUBCHEM_EFFECTIVE_ROTOR_COUNT>
3

> <PUBCHEM_PHARMACOPHORE_FEATURES>
7
1 1 hydrophobe
1 4 acceptor
1 5 acceptor
1 6 cation
1 6 donor
6 3 7 8 9 12 14 rings
6 7 8 10 11 13 15 rings

> <PUBCHEM_HEAVY_ATOM_COUNT>
17

> <PUBCHEM_ATOM_DEF_STEREO_COUNT>
0

> <PUBCHEM_ATOM_UDEF_STEREO_COUNT>
0

> <PUBCHEM_BOND_DEF_STEREO_COUNT>
0

> <PUBCHEM_BOND_UDEF_STEREO_COUNT>
0

> <PUBCHEM_ISOTOPIC_ATOM_COUNT>
0

> <PUBCHEM_COMPONENT_COUNT>
1

> <PUBCHEM_CACTVS_TAUTO_COUNT>
1

> <PUBCHEM_CONFORMER_ID>
000300BB00000001

> <PUBCHEM_MMFF94_ENERGY>
60.1473

> <PUBCHEM_FEATURE_SELFOVERLAP>
35.545

> <PUBCHEM_SHAPE_FINGERPRINT>
10693767 8 18058726905805409422
10756046 5 18123468280920715765
10967382 1 18410858784744163306
11401426 45 18342735238751699961
11471102 20 18410291402273625239
12011746 2 18410299112177765276
12236239 1 17775571957410988899
12670543 26 18411424977424254286
13140716 1 18266464393687235194
13380535 76 18410860992447394482
13862211 1 18411696599725219746
14115302 16 18188217618816238892
14251717 144 18412262847991750927
14576447 43 18200860881845013543
14911166 2 18410859888629866734
15099037 51 18409731785325621534
15196674 1 18338799025752535277
15442244 35 17979635633110428145
16945 1 18338529615850616650
18186145 218 18334564780999630469
193761 8 18050290258626909352
200 152 18131067134587070421
20510252 161 18272938211110051592
20645477 70 18271526412362535111
21029758 11 18272653471704988136
21267235 1 18341058492526117967
21421861 104 17898847955339406971
21452121 103 18128804408413930304
21501502 16 18193839236637116241
21637258 2 15338840816030861620
22713019 99 18342181089492229814
2334 1 17978798140051926466
23402539 116 18342734139287603684
23402655 69 18341891879379632965
23493267 7 17676768764096194793
23559900 14 18200313355203541432
23566358 2 18195523688756993397
25 1 18334850628337567687
2748010 2 18051141577027199594
2871803 45 18412545379456492077
3060560 45 18411980273624862094
3071541 37 18333733494253455726
335352 9 18410012135110721054
34934 24 18341045238404625135
3545911 37 18408040707057936301
4072396 5 18263065674438919682
4990 188 18131638901860275087
543358 83 18268431235590477937
58051976 378 18341331093841971421
59755656 215 18339928112926304982
69090 78 18200876274675167870
8272917 22 18340207384700837079

> <PUBCHEM_SHAPE_MULTIPOLES>
335.08
9.09
2.36
0.7
6.73
0.26
-0.02
-1.87
-2.19
-0.18
0.16
0.19
-0.05
-0.11

> <PUBCHEM_SHAPE_SELFOVERLAP>
692.054

> <PUBCHEM_SHAPE_VOLUME>
197.5

> <PUBCHEM_COORDINATE_TYPE>
2
5
10

$$$$
