9855518
  -OEChem-10241303113D

 14 14  0     0  0  0  0  0  0999 V2000
    2.8235    0.9945    0.7980 Cl  0  0  0  0  0  0  0  0  0  0  0  0
   -0.4249    1.1615   -0.2816 O   0  0  0  0  0  0  0  0  0  0  0  0
   -1.3264   -0.9249    0.2208 O   0  0  0  0  0  0  0  0  0  0  0  0
   -2.6557    0.9447    0.2063 O   0  0  0  0  0  0  0  0  0  0  0  0
    0.5358    0.1711   -0.3262 C   0  0  0  0  0  0  0  0  0  0  0  0
    0.0261   -1.0085   -0.0421 C   0  0  0  0  0  0  0  0  0  0  0  0
    1.9195    0.5784   -0.6700 C   0  0  0  0  0  0  0  0  0  0  0  0
    0.6542   -2.3494    0.0350 C   0  0  0  0  0  0  0  0  0  0  0  0
   -1.5521    0.4325    0.0599 C   0  0  0  0  0  0  0  0  0  0  0  0
    1.9208    1.4486   -1.3336 H   0  0  0  0  0  0  0  0  0  0  0  0
    2.4596   -0.2264   -1.1773 H   0  0  0  0  0  0  0  0  0  0  0  0
    0.1963   -3.0255   -0.6937 H   0  0  0  0  0  0  0  0  0  0  0  0
    0.5170   -2.7754    1.0338 H   0  0  0  0  0  0  0  0  0  0  0  0
    1.7284   -2.3113   -0.1683 H   0  0  0  0  0  0  0  0  0  0  0  0
  1  7  1  0  0  0  0
  2  5  1  0  0  0  0
  2  9  1  0  0  0  0
  3  6  1  0  0  0  0
  3  9  1  0  0  0  0
  4  9  2  0  0  0  0
  5  6  2  0  0  0  0
  5  7  1  0  0  0  0
  6  8  1  0  0  0  0
  7 10  1  0  0  0  0
  7 11  1  0  0  0  0
  8 12  1  0  0  0  0
  8 13  1  0  0  0  0
  8 14  1  0  0  0  0
M  END
> <PUBCHEM_COMPOUND_CID>
9855518

> <PUBCHEM_CONFORMER_RMSD>
0.4

> <PUBCHEM_CONFORMER_DIVERSEORDER>
1
4
3
2

> <PUBCHEM_MMFF94_PARTIAL_CHARGES>
9
1 -0.29
2 -0.23
3 -0.23
4 -0.57
5 -0.06
6 -0.06
7 0.43
8 0.14
9 0.87

> <PUBCHEM_EFFECTIVE_ROTOR_COUNT>
1

> <PUBCHEM_PHARMACOPHORE_FEATURES>
1
5 2 3 5 6 9 rings

> <PUBCHEM_HEAVY_ATOM_COUNT>
9

> <PUBCHEM_ATOM_DEF_STEREO_COUNT>
0

> <PUBCHEM_ATOM_UDEF_STEREO_COUNT>
0

> <PUBCHEM_BOND_DEF_STEREO_COUNT>
0

> <PUBCHEM_BOND_UDEF_STEREO_COUNT>
0

> <PUBCHEM_ISOTOPIC_ATOM_COUNT>
0

> <PUBCHEM_COMPONENT_COUNT>
1

> <PUBCHEM_CACTVS_TAUTO_COUNT>
1

> <PUBCHEM_CONFORMER_ID>
0096621E00000001

> <PUBCHEM_MMFF94_ENERGY>
4.7101

> <PUBCHEM_FEATURE_SELFOVERLAP>
5.074

> <PUBCHEM_SHAPE_FINGERPRINT>
14390081 3 18202565068395142225
20645464 45 18130224981979481224
20871998 184 17838623601808431334
21040471 1 18337681900606277358
23211744 41 18060142088964976772
2748010 2 18337122214728183535
369184 2 18130219488468266384
5084963 1 18200612395941942668
54338 74 17904461249740406996

> <PUBCHEM_SHAPE_MULTIPOLES>
169.48
3.23
1.84
0.76
0.78
1.34
-0.01
-1.81
-0.67
-0.01
-0.1
0.34
-0.09
0.11

> <PUBCHEM_SHAPE_SELFOVERLAP>
337.308

> <PUBCHEM_SHAPE_VOLUME>
103.5

> <PUBCHEM_COORDINATE_TYPE>
2
5
10

$$$$
