111271
  -OEChem-10241302463D

 34 36  0     1  0  0  0  0  0999 V2000
   -6.1025   -2.0810    0.5533 O   0  0  0  0  0  0  0  0  0  0  0  0
    6.1030   -2.0806   -0.5527 O   0  0  0  0  0  0  0  0  0  0  0  0
   -3.3412   -0.1236   -0.2722 O   0  0  0  0  0  0  0  0  0  0  0  0
    3.3411   -0.1237    0.2720 O   0  0  0  0  0  0  0  0  0  0  0  0
   -3.5380    2.1698   -0.2869 O   0  0  0  0  0  0  0  0  0  0  0  0
    3.5378    2.1697    0.2882 O   0  0  0  0  0  0  0  0  0  0  0  0
   -5.1267   -1.7002   -0.4196 C   0  0  2  0  0  0  0  0  0  0  0  0
    5.1264   -1.7003    0.4197 C   0  0  2  0  0  0  0  0  0  0  0  0
   -4.7787   -2.6049    0.7205 C   0  0  0  0  0  0  0  0  0  0  0  0
    4.7792   -2.6044   -0.7210 C   0  0  0  0  0  0  0  0  0  0  0  0
   -4.7620   -0.2557   -0.3888 C   0  0  0  0  0  0  0  0  0  0  0  0
    4.7618   -0.2558    0.3894 C   0  0  0  0  0  0  0  0  0  0  0  0
   -2.8395    1.1488   -0.2303 C   0  0  0  0  0  0  0  0  0  0  0  0
    2.8396    1.1487    0.2304 C   0  0  0  0  0  0  0  0  0  0  0  0
   -1.3903    1.1489   -0.1127 C   0  0  0  0  0  0  0  0  0  0  0  0
    1.3903    1.1489    0.1120 C   0  0  0  0  0  0  0  0  0  0  0  0
   -0.6953    2.3569   -0.0564 C   0  0  0  0  0  0  0  0  0  0  0  0
    0.6951    2.3568    0.0559 C   0  0  0  0  0  0  0  0  0  0  0  0
   -0.6952   -0.0591   -0.0566 C   0  0  0  0  0  0  0  0  0  0  0  0
    0.6952   -0.0591    0.0558 C   0  0  0  0  0  0  0  0  0  0  0  0
   -5.1853   -2.1202   -1.4137 H   0  0  0  0  0  0  0  0  0  0  0  0
    5.1844   -2.1209    1.4137 H   0  0  0  0  0  0  0  0  0  0  0  0
   -4.1874   -2.2156    1.5391 H   0  0  0  0  0  0  0  0  0  0  0  0
   -4.6282   -3.6559    0.5110 H   0  0  0  0  0  0  0  0  0  0  0  0
    4.1885   -2.2149   -1.5398 H   0  0  0  0  0  0  0  0  0  0  0  0
    4.6287   -3.6556   -0.5121 H   0  0  0  0  0  0  0  0  0  0  0  0
   -5.0969    0.2256   -1.3146 H   0  0  0  0  0  0  0  0  0  0  0  0
   -5.2363    0.2491    0.4614 H   0  0  0  0  0  0  0  0  0  0  0  0
    5.0960    0.2251    1.3157 H   0  0  0  0  0  0  0  0  0  0  0  0
    5.2366    0.2495   -0.4602 H   0  0  0  0  0  0  0  0  0  0  0  0
   -1.2176    3.3091   -0.0985 H   0  0  0  0  0  0  0  0  0  0  0  0
    1.2175    3.3090    0.0984 H   0  0  0  0  0  0  0  0  0  0  0  0
   -1.1948   -1.0231   -0.0969 H   0  0  0  0  0  0  0  0  0  0  0  0
    1.1948   -1.0230    0.0961 H   0  0  0  0  0  0  0  0  0  0  0  0
  1  7  1  0  0  0  0
  1  9  1  0  0  0  0
  2  8  1  0  0  0  0
  2 10  1  0  0  0  0
  3 11  1  0  0  0  0
  3 13  1  0  0  0  0
  4 12  1  0  0  0  0
  4 14  1  0  0  0  0
  5 13  2  0  0  0  0
  6 14  2  0  0  0  0
  7  9  1  0  0  0  0
  7 11  1  0  0  0  0
  7 21  1  0  0  0  0
  8 10  1  0  0  0  0
  8 12  1  0  0  0  0
  8 22  1  0  0  0  0
  9 23  1  0  0  0  0
  9 24  1  0  0  0  0
 10 25  1  0  0  0  0
 10 26  1  0  0  0  0
 11 27  1  0  0  0  0
 11 28  1  0  0  0  0
 12 29  1  0  0  0  0
 12 30  1  0  0  0  0
 13 15  1  0  0  0  0
 14 16  1  0  0  0  0
 15 17  2  0  0  0  0
 15 19  1  0  0  0  0
 16 18  2  0  0  0  0
 16 20  1  0  0  0  0
 17 18  1  0  0  0  0
 17 31  1  0  0  0  0
 18 32  1  0  0  0  0
 19 20  2  0  0  0  0
 19 33  1  0  0  0  0
 20 34  1  0  0  0  0
M  END
> <PUBCHEM_COMPOUND_CID>
111271

> <PUBCHEM_CONFORMER_RMSD>
0.8

> <PUBCHEM_CONFORMER_DIVERSEORDER>
2
98
10
28
69
11
164
115
5
134
139
145
16
3
137
64
136
9
87
1
17
138
58
132
135
120
74
150
27
4
146
99
29
112
85
56
71
40
118
124
111
80
86
117
114
55
65
147
144
76
142
90
66
159
88
39
89
34
19
95
128
102
154
21
91
8
47
163
67
123
45
59
155
68
35
54
107
153
83
33
127
121
30
96
60
12
108
49
97
126
38
18
94
46
48
161
101
140
81
122
130
143
78
103
61
31
104
43
51
13
75
113
151
42
157
70
119
82
25
77
20
84
116
50
73
52
44
79
24
133
106
36
129
149
158
125
160
109
32
141
57
148
26
15
152
62
110
7
156
105
37
100
93
53
14
6
22
92
23
72
41
63
131
162

> <PUBCHEM_MMFF94_PARTIAL_CHARGES>
30
1 -0.3
10 -0.05
11 0.38
12 0.38
13 0.63
14 0.63
15 0.09
16 0.09
17 -0.15
18 -0.15
19 -0.15
2 -0.3
20 -0.15
21 0.1
22 0.1
23 0.1
24 0.1
25 0.1
26 0.1
3 -0.43
31 0.15
32 0.15
33 0.15
34 0.15
4 -0.43
5 -0.57
6 -0.57
7 -0.05
8 -0.05
9 -0.05

> <PUBCHEM_EFFECTIVE_ROTOR_COUNT>
9.2

> <PUBCHEM_PHARMACOPHORE_FEATURES>
5
1 1 acceptor
1 2 acceptor
1 5 acceptor
1 6 acceptor
6 15 16 17 18 19 20 rings

> <PUBCHEM_HEAVY_ATOM_COUNT>
20

> <PUBCHEM_ATOM_DEF_STEREO_COUNT>
0

> <PUBCHEM_ATOM_UDEF_STEREO_COUNT>
2

> <PUBCHEM_BOND_DEF_STEREO_COUNT>
0

> <PUBCHEM_BOND_UDEF_STEREO_COUNT>
0

> <PUBCHEM_ISOTOPIC_ATOM_COUNT>
0

> <PUBCHEM_COMPONENT_COUNT>
1

> <PUBCHEM_CACTVS_TAUTO_COUNT>
1

> <PUBCHEM_CONFORMER_ID>
0001B2A700000002

> <PUBCHEM_MMFF94_ENERGY>
51.9241

> <PUBCHEM_FEATURE_SELFOVERLAP>
25.374

> <PUBCHEM_SHAPE_FINGERPRINT>
11036077 4 18130517336467023449
11197282 1 18410858762958973827
11796584 16 18264200310414704552
12032990 46 18410853261105386949
12403259 226 18410567392377580708
12422481 6 17418096507294275239
12760667 363 18341890801770239407
12916754 54 18411138030327359992
12969540 114 13912332282538761826
13073987 5 18272933842653616224
13167823 11 18410849962570042407
13533116 47 18272089456372311042
13551218 46 18343020029865591735
13740256 8 18411138009131533126
13955234 65 18057036037510820240
14123256 34 18343590616386916446
14211702 104 18407755945745715274
14216079 64 18410855495432775911
14251740 57 18412542132983442738
15042514 8 18411982429957063017
15196674 1 18410570686617106981
15352361 1 18410573985178104243
17492 89 18411417323576371452
17959699 21 8862935091899083598
193927 3 18410573985151594050
20398071 356 18341055142003779959
20621476 21 18200881682081705094
20645477 70 18335698364924705840
21267235 1 18410859858174815810
21279426 13 18261103085175648471
21682296 61 18271811194089764071
221490 88 18411417306633931032
22393880 68 18041547071154395149
23379529 103 18190184675289161387
23424784 1240 18129390315052204542
23559900 14 18336817654571327545
25122255 55 18409735066628401219
2748736 6 9223230715320187054
2838139 119 8718830864184167322
3089732 80 18410296912548698886
314194 84 18200025282592191437
33382 64 18272091616888683834
465052 167 18272936016460579206
5104073 3 18201718448647142888
5365585 94 18187653547982322707
59755656 215 18262511482129640527
59755656 520 18120366567742198085
636775 8 18341061727243712590
7062679 13 18409165489535005066
7970288 3 18410854364912254850

> <PUBCHEM_SHAPE_MULTIPOLES>
376.37
14.4
3.26
0.72
0
0.62
0
14.7
0
0
0
0
0.22
1.4

> <PUBCHEM_SHAPE_SELFOVERLAP>
789.845

> <PUBCHEM_SHAPE_VOLUME>
212.5

> <PUBCHEM_COORDINATE_TYPE>
2
5
10

$$$$
