160791
  -OEChem-10241302553D

 11 10  0     0  0  0  0  0  0999 V2000
   -0.1704    2.2125   -0.0423 Cl  0  0  0  0  0  0  0  0  0  0  0  0
   -2.7712    0.3072   -0.0595 Cl  0  0  0  0  0  0  0  0  0  0  0  0
   -1.0334   -2.0486    0.0256 Cl  0  0  0  0  0  0  0  0  0  0  0  0
    1.8746   -0.2292    1.1691 O   0  0  0  0  0  0  0  0  0  0  0  0
    1.3136   -0.0566    0.0885 C   0  0  0  0  0  0  0  0  0  0  0  0
    2.0126   -0.3543   -1.2127 C   0  0  0  0  0  0  0  0  0  0  0  0
   -0.0745    0.4856    0.0218 C   0  0  0  0  0  0  0  0  0  0  0  0
   -1.1514   -0.3167    0.0096 C   0  0  0  0  0  0  0  0  0  0  0  0
    1.3481   -0.1793   -2.0635 H   0  0  0  0  0  0  0  0  0  0  0  0
    2.3214   -1.4028   -1.2237 H   0  0  0  0  0  0  0  0  0  0  0  0
    2.8847    0.2975   -1.3101 H   0  0  0  0  0  0  0  0  0  0  0  0
  1  7  1  0  0  0  0
  2  8  1  0  0  0  0
  3  8  1  0  0  0  0
  4  5  2  0  0  0  0
  5  6  1  0  0  0  0
  5  7  1  0  0  0  0
  6  9  1  0  0  0  0
  6 10  1  0  0  0  0
  6 11  1  0  0  0  0
  7  8  2  0  0  0  0
M  END
> <PUBCHEM_COMPOUND_CID>
160791

> <PUBCHEM_CONFORMER_RMSD>
0.4

> <PUBCHEM_CONFORMER_DIVERSEORDER>
1
4
5
3
2

> <PUBCHEM_MMFF94_PARTIAL_CHARGES>
8
1 -0.14
2 -0.14
3 -0.14
4 -0.57
5 0.49
6 0.06
7 0.15
8 0.28

> <PUBCHEM_EFFECTIVE_ROTOR_COUNT>
1

> <PUBCHEM_PHARMACOPHORE_FEATURES>
1
1 4 acceptor

> <PUBCHEM_HEAVY_ATOM_COUNT>
8

> <PUBCHEM_ATOM_DEF_STEREO_COUNT>
0

> <PUBCHEM_ATOM_UDEF_STEREO_COUNT>
0

> <PUBCHEM_BOND_DEF_STEREO_COUNT>
0

> <PUBCHEM_BOND_UDEF_STEREO_COUNT>
0

> <PUBCHEM_ISOTOPIC_ATOM_COUNT>
0

> <PUBCHEM_COMPONENT_COUNT>
1

> <PUBCHEM_CACTVS_TAUTO_COUNT>
2

> <PUBCHEM_CONFORMER_ID>
0002741700000001

> <PUBCHEM_MMFF94_ENERGY>
15.1386

> <PUBCHEM_FEATURE_SELFOVERLAP>
5.074

> <PUBCHEM_SHAPE_FINGERPRINT>
137420 1 15870292883425480836
15310529 11 16732986426996795239
16714656 1 18338530650478825093
18185500 45 18187356666477587210
21040471 1 18410292471725932043
22082395 3 18337963302526469335
23211744 25 17464838030901817564
23552333 60 17313104124946535736
23552423 10 17756143741239994503
24536 1 17986959741729020819
29004967 10 16845569811931776458
5084963 1 17986680272349076117

> <PUBCHEM_SHAPE_MULTIPOLES>
164.38
3.01
1.94
0.92
0.66
0.32
0.01
-0.33
0.28
0.59
0.02
-0.57
-0.1
0.09

> <PUBCHEM_SHAPE_SELFOVERLAP>
286.772

> <PUBCHEM_SHAPE_VOLUME>
110.1

> <PUBCHEM_COORDINATE_TYPE>
2
5
10

$$$$
