44256981
  -OEChem-10241302513D

 80 84  0     1  0  0  0  0  0999 V2000
   -0.3930    1.2440   -1.4055 O   0  0  0  0  0  0  0  0  0  0  0  0
    2.1924    1.3088   -0.4739 O   0  0  0  0  0  0  0  0  0  0  0  0
    4.3801    2.0331   -0.1016 O   0  0  0  0  0  0  0  0  0  0  0  0
    0.7938    4.1684   -3.2864 O   0  0  0  0  0  0  0  0  0  0  0  0
   -2.0359    4.1375   -3.8691 O   0  0  0  0  0  0  0  0  0  0  0  0
   -2.2553   -0.1552   -1.6935 O   0  0  0  0  0  0  0  0  0  0  0  0
   -2.8768    2.5537   -1.7327 O   0  0  0  0  0  0  0  0  0  0  0  0
    2.2151    0.0134    2.0538 O   0  0  0  0  0  0  0  0  0  0  0  0
    4.8663   -0.7479    2.9244 O   0  0  0  0  0  0  0  0  0  0  0  0
    6.3159    0.0945    0.7067 O   0  0  0  0  0  0  0  0  0  0  0  0
   -1.1102   -2.6730    0.7635 O   0  3  0  0  0  0  0  0  0  0  0  0
    0.7325   -3.8801   -3.5667 O   0  0  0  0  0  0  0  0  0  0  0  0
   -1.8711    1.3795    4.0852 O   0  0  0  0  0  0  0  0  0  0  0  0
   -5.8160    0.5940    1.4856 O   0  0  0  0  0  0  0  0  0  0  0  0
    1.5708   -6.6099    0.2381 O   0  0  0  0  0  0  0  0  0  0  0  0
   -4.5632    1.8353    3.6214 O   0  0  0  0  0  0  0  0  0  0  0  0
    0.5499    2.1320   -2.0150 C   0  0  1  0  0  0  0  0  0  0  0  0
   -0.1526    3.3786   -2.5707 C   0  0  2  0  0  0  0  0  0  0  0  0
   -1.2921    2.9762   -3.5105 C   0  0  1  0  0  0  0  0  0  0  0  0
   -2.2092    1.9502   -2.8453 C   0  0  1  0  0  0  0  0  0  0  0  0
    3.4081    0.3168    1.3310 C   0  0  1  0  0  0  0  0  0  0  0  0
    3.1739    1.5948    0.5221 C   0  0  2  0  0  0  0  0  0  0  0  0
    4.5601    0.5045    2.3177 C   0  0  2  0  0  0  0  0  0  0  0  0
    5.7975    1.0666    1.6169 C   0  0  2  0  0  0  0  0  0  0  0  0
   -1.3814    0.7752   -2.3256 C   0  0  1  0  0  0  0  0  0  0  0  0
    1.5862    2.4974   -0.9570 C   0  0  0  0  0  0  0  0  0  0  0  0
    5.4217    2.3309    0.8365 C   0  0  1  0  0  0  0  0  0  0  0  0
    6.5969    2.8963    0.0475 C   0  0  0  0  0  0  0  0  0  0  0  0
   -1.5717   -1.2467   -1.2092 C   0  0  0  0  0  0  0  0  0  0  0  0
   -1.6503   -1.6068    0.2422 C   0  0  0  0  0  0  0  0  0  0  0  0
   -0.8556   -2.0641   -1.9918 C   0  0  0  0  0  0  0  0  0  0  0  0
   -0.2041   -3.2453   -1.4377 C   0  0  0  0  0  0  0  0  0  0  0  0
   -2.4167   -0.7015    1.1299 C   0  0  0  0  0  0  0  0  0  0  0  0
   -0.3624   -3.5206   -0.0754 C   0  0  0  0  0  0  0  0  0  0  0  0
    0.5543   -4.1084   -2.2341 C   0  0  0  0  0  0  0  0  0  0  0  0
    0.2329   -4.6502    0.4872 C   0  0  0  0  0  0  0  0  0  0  0  0
   -3.7720   -0.4732    0.8925 C   0  0  0  0  0  0  0  0  0  0  0  0
   -1.7821   -0.0774    2.2041 C   0  0  0  0  0  0  0  0  0  0  0  0
    1.1499   -5.2374   -1.6686 C   0  0  0  0  0  0  0  0  0  0  0  0
    0.9890   -5.5081   -0.3098 C   0  0  0  0  0  0  0  0  0  0  0  0
   -2.5029    0.7748    3.0405 C   0  0  0  0  0  0  0  0  0  0  0  0
   -4.4930    0.3789    1.7291 C   0  0  0  0  0  0  0  0  0  0  0  0
   -3.8583    1.0030    2.8031 C   0  0  0  0  0  0  0  0  0  0  0  0
   -1.2740    2.6501    3.8334 C   0  0  0  0  0  0  0  0  0  0  0  0
   -6.3873   -0.0827    0.3676 C   0  0  0  0  0  0  0  0  0  0  0  0
    1.0657    1.5847   -2.8158 H   0  0  0  0  0  0  0  0  0  0  0  0
   -0.5431    4.0033   -1.7589 H   0  0  0  0  0  0  0  0  0  0  0  0
   -0.8771    2.5637   -4.4385 H   0  0  0  0  0  0  0  0  0  0  0  0
   -2.9938    1.6164   -3.5322 H   0  0  0  0  0  0  0  0  0  0  0  0
    3.6009   -0.5355    0.6690 H   0  0  0  0  0  0  0  0  0  0  0  0
    2.7957    2.3855    1.1853 H   0  0  0  0  0  0  0  0  0  0  0  0
    4.2480    1.1809    3.1233 H   0  0  0  0  0  0  0  0  0  0  0  0
    6.5814    1.2704    2.3554 H   0  0  0  0  0  0  0  0  0  0  0  0
   -0.8869    0.3030   -3.1850 H   0  0  0  0  0  0  0  0  0  0  0  0
    1.0909    3.0054   -0.1202 H   0  0  0  0  0  0  0  0  0  0  0  0
    2.3495    3.1607   -1.3786 H   0  0  0  0  0  0  0  0  0  0  0  0
    5.0623    3.1048    1.5268 H   0  0  0  0  0  0  0  0  0  0  0  0
    6.9019    2.2268   -0.7637 H   0  0  0  0  0  0  0  0  0  0  0  0
    7.4568    3.0892    0.6959 H   0  0  0  0  0  0  0  0  0  0  0  0
    6.3066    3.8388   -0.4302 H   0  0  0  0  0  0  0  0  0  0  0  0
    1.1543    3.6254   -4.0081 H   0  0  0  0  0  0  0  0  0  0  0  0
   -2.7578    3.8526   -4.4550 H   0  0  0  0  0  0  0  0  0  0  0  0
   -2.2311    2.6734   -1.0160 H   0  0  0  0  0  0  0  0  0  0  0  0
    2.0194    0.7618    2.6431 H   0  0  0  0  0  0  0  0  0  0  0  0
    5.6063   -0.6023    3.5382 H   0  0  0  0  0  0  0  0  0  0  0  0
    7.2145    0.3703    0.4593 H   0  0  0  0  0  0  0  0  0  0  0  0
   -0.7813   -1.8943   -3.0602 H   0  0  0  0  0  0  0  0  0  0  0  0
    0.1051   -4.8542    1.5466 H   0  0  0  0  0  0  0  0  0  0  0  0
   -4.2187   -0.9965    0.0538 H   0  0  0  0  0  0  0  0  0  0  0  0
   -0.7258   -0.2537    2.3916 H   0  0  0  0  0  0  0  0  0  0  0  0
    1.7404   -5.9094   -2.2872 H   0  0  0  0  0  0  0  0  0  0  0  0
    1.2852   -4.5865   -3.9424 H   0  0  0  0  0  0  0  0  0  0  0  0
    2.0552   -7.0894   -0.4557 H   0  0  0  0  0  0  0  0  0  0  0  0
   -5.4821    1.8721    3.3036 H   0  0  0  0  0  0  0  0  0  0  0  0
   -0.8220    3.0066    4.7630 H   0  0  0  0  0  0  0  0  0  0  0  0
   -2.0285    3.3742    3.5104 H   0  0  0  0  0  0  0  0  0  0  0  0
   -0.4897    2.5606    3.0746 H   0  0  0  0  0  0  0  0  0  0  0  0
   -7.4424    0.2069    0.3212 H   0  0  0  0  0  0  0  0  0  0  0  0
   -6.3626   -1.1700    0.4978 H   0  0  0  0  0  0  0  0  0  0  0  0
   -5.9295    0.2365   -0.5752 H   0  0  0  0  0  0  0  0  0  0  0  0
  1 17  1  0  0  0  0
  1 25  1  0  0  0  0
  2 22  1  0  0  0  0
  2 26  1  0  0  0  0
  3 22  1  0  0  0  0
  3 27  1  0  0  0  0
  4 18  1  0  0  0  0
  4 61  1  0  0  0  0
  5 19  1  0  0  0  0
  5 62  1  0  0  0  0
  6 25  1  0  0  0  0
  6 29  1  0  0  0  0
  7 20  1  0  0  0  0
  7 63  1  0  0  0  0
  8 21  1  0  0  0  0
  8 64  1  0  0  0  0
  9 23  1  0  0  0  0
  9 65  1  0  0  0  0
 10 24  1  0  0  0  0
 10 66  1  0  0  0  0
 11 30  2  0  0  0  0
 11 34  1  0  0  0  0
 12 35  1  0  0  0  0
 12 72  1  0  0  0  0
 13 41  1  0  0  0  0
 13 44  1  0  0  0  0
 14 42  1  0  0  0  0
 14 45  1  0  0  0  0
 15 40  1  0  0  0  0
 15 73  1  0  0  0  0
 16 43  1  0  0  0  0
 16 74  1  0  0  0  0
 17 18  1  0  0  0  0
 17 26  1  0  0  0  0
 17 46  1  0  0  0  0
 18 19  1  0  0  0  0
 18 47  1  0  0  0  0
 19 20  1  0  0  0  0
 19 48  1  0  0  0  0
 20 25  1  0  0  0  0
 20 49  1  0  0  0  0
 21 22  1  0  0  0  0
 21 23  1  0  0  0  0
 21 50  1  0  0  0  0
 22 51  1  0  0  0  0
 23 24  1  0  0  0  0
 23 52  1  0  0  0  0
 24 27  1  0  0  0  0
 24 53  1  0  0  0  0
 25 54  1  0  0  0  0
 26 55  1  0  0  0  0
 26 56  1  0  0  0  0
 27 28  1  0  0  0  0
 27 57  1  0  0  0  0
 28 58  1  0  0  0  0
 28 59  1  0  0  0  0
 28 60  1  0  0  0  0
 29 30  1  0  0  0  0
 29 31  2  0  0  0  0
 30 33  1  0  0  0  0
 31 32  1  0  0  0  0
 31 67  1  0  0  0  0
 32 34  1  0  0  0  0
 32 35  2  0  0  0  0
 33 37  2  0  0  0  0
 33 38  1  0  0  0  0
 34 36  2  0  0  0  0
 35 39  1  0  0  0  0
 36 40  1  0  0  0  0
 36 68  1  0  0  0  0
 37 42  1  0  0  0  0
 37 69  1  0  0  0  0
 38 41  2  0  0  0  0
 38 70  1  0  0  0  0
 39 40  2  0  0  0  0
 39 71  1  0  0  0  0
 41 43  1  0  0  0  0
 42 43  2  0  0  0  0
 44 75  1  0  0  0  0
 44 76  1  0  0  0  0
 44 77  1  0  0  0  0
 45 78  1  0  0  0  0
 45 79  1  0  0  0  0
 45 80  1  0  0  0  0
M  CHG  1  11   1
M  END
> <PUBCHEM_COMPOUND_CID>
44256981

> <PUBCHEM_CONFORMER_RMSD>
1.6

> <PUBCHEM_CONFORMER_DIVERSEORDER>
2
71
92
35
79
38
16
73
59
34
64
41
13
14
60
25
56
78
46
62
26
52
72
32
10
57
42
61
39
55
23
48
98
69
19
28
66
96
5
97
27
21
15
36
1
67
68
40
75
4
6
3
76
12
33
82
22
9
58
70
18
85
84
87
44
89
86
31
43
11
83
99
54
88
77
47
53
8
49
29
17
20
50
80
94
95
90
45
63
7
30
37
65
91
74
24
51
81
93

> <PUBCHEM_MMFF94_PARTIAL_CHARGES>
58
1 -0.56
10 -0.68
11 -0.87
12 -0.53
13 -0.36
14 -0.36
15 -0.53
16 -0.53
17 0.28
18 0.28
19 0.28
2 -0.56
20 0.28
21 0.28
22 0.56
23 0.28
24 0.28
25 0.56
26 0.28
27 0.28
29 0.09
3 -0.56
30 0.85
31 -0.18
32 0.03
33 0.09
34 0.92
35 0.08
36 -0.15
37 -0.15
38 -0.15
39 -0.15
4 -0.68
40 0.08
41 0.08
42 0.08
43 0.08
44 0.28
45 0.28
5 -0.68
6 -0.36
61 0.4
62 0.4
63 0.4
64 0.4
65 0.4
66 0.4
67 0.15
68 0.15
69 0.15
7 -0.68
70 0.15
71 0.15
72 0.45
73 0.45
74 0.45
8 -0.68
9 -0.68

> <PUBCHEM_EFFECTIVE_ROTOR_COUNT>
10.4

> <PUBCHEM_PHARMACOPHORE_FEATURES>
26
1 1 acceptor
1 10 acceptor
1 10 donor
1 12 donor
1 13 acceptor
1 14 acceptor
1 15 donor
1 16 donor
1 2 acceptor
1 3 acceptor
1 4 acceptor
1 4 donor
1 5 acceptor
1 5 donor
1 6 acceptor
1 7 acceptor
1 7 donor
1 8 acceptor
1 8 donor
1 9 acceptor
1 9 donor
6 1 17 18 19 20 25 rings
6 11 29 30 31 32 34 rings
6 3 21 22 23 24 27 rings
6 32 34 35 36 39 40 rings
6 33 37 38 41 42 43 rings

> <PUBCHEM_HEAVY_ATOM_COUNT>
45

> <PUBCHEM_ATOM_DEF_STEREO_COUNT>
5

> <PUBCHEM_ATOM_UDEF_STEREO_COUNT>
5

> <PUBCHEM_BOND_DEF_STEREO_COUNT>
0

> <PUBCHEM_BOND_UDEF_STEREO_COUNT>
0

> <PUBCHEM_ISOTOPIC_ATOM_COUNT>
0

> <PUBCHEM_COMPONENT_COUNT>
1

> <PUBCHEM_CACTVS_TAUTO_COUNT>
53

> <PUBCHEM_CONFORMER_ID>
02A34ED500000002

> <PUBCHEM_MMFF94_ENERGY>
160.379

> <PUBCHEM_FEATURE_SELFOVERLAP>
132.135

> <PUBCHEM_SHAPE_FINGERPRINT>
11377469 6 17686898728116495398
11434127 23 17271723095098801584
11578080 2 18123187897393271089
12128747 34 17201670863866438452
12156800 1 16446463424968068233
12786520 15 17677629711765644300
13165053 137 18189594160241142847
14844126 61 17753016610101952180
14856354 85 17313954155331098872
15775530 1 17757835532799395830
19315092 285 16757181485515120676
21716022 299 16047524369513292335
5171179 24 17976262331541990839
57527452 28 18270115859250285023

> <PUBCHEM_SHAPE_MULTIPOLES>
832.17
10.48
7.41
4.83
11.78
14.11
0.33
-9.31
-9.57
1.92
5.58
-3.21
-5.2
-0.66

> <PUBCHEM_SHAPE_SELFOVERLAP>
1796.975

> <PUBCHEM_SHAPE_VOLUME>
451.2

> <PUBCHEM_COORDINATE_TYPE>
2
5
10

$$$$
