2710
  -OEChem-10241302563D

 42 44  0     1  0  0  0  0  0999 V2000
   -5.0231   -2.6546    0.5925 Cl  0  0  0  0  0  0  0  0  0  0  0  0
    1.2463   -0.3774   -0.0107 N   0  0  0  0  0  0  0  0  0  0  0  0
    3.7330   -1.8481   -0.1200 N   0  0  0  0  0  0  0  0  0  0  0  0
    2.4882    0.2580   -0.4675 C   0  0  0  0  0  0  0  0  0  0  0  0
    1.2687   -1.8155   -0.3047 C   0  0  0  0  0  0  0  0  0  0  0  0
    0.0818    0.2593   -0.6226 C   0  0  1  0  0  0  0  0  0  0  0  0
    3.7099   -0.4098    0.1731 C   0  0  0  0  0  0  0  0  0  0  0  0
    2.4905   -2.4842    0.3347 C   0  0  0  0  0  0  0  0  0  0  0  0
   -1.2118   -0.4800   -0.3141 C   0  0  0  0  0  0  0  0  0  0  0  0
   -0.0164    1.7390   -0.2816 C   0  0  0  0  0  0  0  0  0  0  0  0
    4.8969   -2.4844    0.4938 C   0  0  0  0  0  0  0  0  0  0  0  0
   -1.6294   -1.4796   -1.1689 C   0  0  0  0  0  0  0  0  0  0  0  0
   -1.9296   -0.1283    0.8110 C   0  0  0  0  0  0  0  0  0  0  0  0
   -0.6039    2.5956   -1.1902 C   0  0  0  0  0  0  0  0  0  0  0  0
    0.4847    2.1803    0.9263 C   0  0  0  0  0  0  0  0  0  0  0  0
   -2.8158   -2.1567   -0.8867 C   0  0  0  0  0  0  0  0  0  0  0  0
   -3.1160   -0.8053    1.0934 C   0  0  0  0  0  0  0  0  0  0  0  0
   -0.6941    3.9520   -0.8777 C   0  0  0  0  0  0  0  0  0  0  0  0
    0.3944    3.5367    1.2387 C   0  0  0  0  0  0  0  0  0  0  0  0
   -3.5592   -1.8196    0.2445 C   0  0  0  0  0  0  0  0  0  0  0  0
   -0.1951    4.4226    0.3367 C   0  0  0  0  0  0  0  0  0  0  0  0
    2.5543    1.3210   -0.2210 H   0  0  0  0  0  0  0  0  0  0  0  0
    2.5762    0.1874   -1.5611 H   0  0  0  0  0  0  0  0  0  0  0  0
    1.2779   -2.0053   -1.3864 H   0  0  0  0  0  0  0  0  0  0  0  0
    0.4130   -2.3353    0.1367 H   0  0  0  0  0  0  0  0  0  0  0  0
    0.2164    0.2159   -1.7160 H   0  0  0  0  0  0  0  0  0  0  0  0
    4.6133    0.0627   -0.2316 H   0  0  0  0  0  0  0  0  0  0  0  0
    3.7036   -0.2293    1.2567 H   0  0  0  0  0  0  0  0  0  0  0  0
    2.4065   -2.4386    1.4293 H   0  0  0  0  0  0  0  0  0  0  0  0
    2.4927   -3.5440    0.0517 H   0  0  0  0  0  0  0  0  0  0  0  0
    4.9343   -3.5483    0.2349 H   0  0  0  0  0  0  0  0  0  0  0  0
    4.8906   -2.3953    1.5862 H   0  0  0  0  0  0  0  0  0  0  0  0
    5.8230   -2.0366    0.1168 H   0  0  0  0  0  0  0  0  0  0  0  0
   -1.0696   -1.7436   -2.0609 H   0  0  0  0  0  0  0  0  0  0  0  0
   -1.6115    0.6352    1.5106 H   0  0  0  0  0  0  0  0  0  0  0  0
   -0.9968    2.2385   -2.1374 H   0  0  0  0  0  0  0  0  0  0  0  0
    0.9234    1.5157    1.6643 H   0  0  0  0  0  0  0  0  0  0  0  0
   -3.1505   -2.9427   -1.5588 H   0  0  0  0  0  0  0  0  0  0  0  0
   -3.6826   -0.5359    1.9811 H   0  0  0  0  0  0  0  0  0  0  0  0
   -1.1539    4.6417   -1.5796 H   0  0  0  0  0  0  0  0  0  0  0  0
    0.7767    3.9025    2.1872 H   0  0  0  0  0  0  0  0  0  0  0  0
   -0.2670    5.4784    0.5809 H   0  0  0  0  0  0  0  0  0  0  0  0
  1 20  1  0  0  0  0
  2  4  1  0  0  0  0
  2  5  1  0  0  0  0
  2  6  1  0  0  0  0
  3  7  1  0  0  0  0
  3  8  1  0  0  0  0
  3 11  1  0  0  0  0
  4  7  1  0  0  0  0
  4 22  1  0  0  0  0
  4 23  1  0  0  0  0
  5  8  1  0  0  0  0
  5 24  1  0  0  0  0
  5 25  1  0  0  0  0
  6  9  1  0  0  0  0
  6 10  1  0  0  0  0
  6 26  1  0  0  0  0
  7 27  1  0  0  0  0
  7 28  1  0  0  0  0
  8 29  1  0  0  0  0
  8 30  1  0  0  0  0
  9 12  2  0  0  0  0
  9 13  1  0  0  0  0
 10 14  2  0  0  0  0
 10 15  1  0  0  0  0
 11 31  1  0  0  0  0
 11 32  1  0  0  0  0
 11 33  1  0  0  0  0
 12 16  1  0  0  0  0
 12 34  1  0  0  0  0
 13 17  2  0  0  0  0
 13 35  1  0  0  0  0
 14 18  1  0  0  0  0
 14 36  1  0  0  0  0
 15 19  2  0  0  0  0
 15 37  1  0  0  0  0
 16 20  2  0  0  0  0
 16 38  1  0  0  0  0
 17 20  1  0  0  0  0
 17 39  1  0  0  0  0
 18 21  2  0  0  0  0
 18 40  1  0  0  0  0
 19 21  1  0  0  0  0
 19 41  1  0  0  0  0
 21 42  1  0  0  0  0
M  END
> <PUBCHEM_COMPOUND_CID>
2710

> <PUBCHEM_CONFORMER_RMSD>
0.6

> <PUBCHEM_CONFORMER_DIVERSEORDER>
1
12
10
4
2
7
11
3
9
5
6
8

> <PUBCHEM_MMFF94_PARTIAL_CHARGES>
30
1 -0.18
10 -0.14
11 0.27
12 -0.15
13 -0.15
14 -0.15
15 -0.15
16 -0.15
17 -0.15
18 -0.15
19 -0.15
2 -0.81
20 0.18
21 -0.15
3 -0.81
34 0.15
35 0.15
36 0.15
37 0.15
38 0.15
39 0.15
4 0.27
40 0.15
41 0.15
42 0.15
5 0.27
6 0.56
7 0.27
8 0.27
9 -0.14

> <PUBCHEM_EFFECTIVE_ROTOR_COUNT>
4.2

> <PUBCHEM_PHARMACOPHORE_FEATURES>
5
1 2 cation
1 3 cation
6 10 14 15 18 19 21 rings
6 2 3 4 5 7 8 rings
6 9 12 13 16 17 20 rings

> <PUBCHEM_HEAVY_ATOM_COUNT>
21

> <PUBCHEM_ATOM_DEF_STEREO_COUNT>
0

> <PUBCHEM_ATOM_UDEF_STEREO_COUNT>
1

> <PUBCHEM_BOND_DEF_STEREO_COUNT>
0

> <PUBCHEM_BOND_UDEF_STEREO_COUNT>
0

> <PUBCHEM_ISOTOPIC_ATOM_COUNT>
0

> <PUBCHEM_COMPONENT_COUNT>
1

> <PUBCHEM_CACTVS_TAUTO_COUNT>
1

> <PUBCHEM_CONFORMER_ID>
00000A9600000001

> <PUBCHEM_MMFF94_ENERGY>
66.4202

> <PUBCHEM_FEATURE_SELFOVERLAP>
25.375

> <PUBCHEM_SHAPE_FINGERPRINT>
10411042 1 18410292514560119158
11056379 131 18267031548883579230
11578080 2 17558516254153498833
12553582 1 18340766035123197230
12643181 29 17259347666511740022
12788726 201 18190746323355295122
13004483 165 18410852118849613419
13052359 8 17976817584307551108
13134695 92 18337669831927614903
13140716 1 18411420566171022570
13533116 47 18120382218655694187
136203 1 18194120703034532657
138480 1 15024148115180755250
13955234 65 17905899428514691987
13965767 371 17410529522522438747
14790565 3 17977391864654601556
14844126 61 18194103136977560266
14955137 171 18127154053997276518
15042514 8 18266464209077377059
17868525 174 18410581721300343641
17876694 64 17773901803248031123
17980427 23 17775573031347985281
1813 80 18270414874309391734
18785283 64 17830454247345764635
19319366 153 16830922410285665135
20510252 161 17838048204575607905
20600515 1 17987816106889990041
21049683 271 18044667626655803628
21120745 212 18266766622193976348
21524375 3 16973066706556570964
21731228 192 17402618441771147232
2255824 54 17979080705828855183
22907989 373 18194697968446469564
23366157 5 17977384159556138199
23526113 38 17604714507221494883
23558518 356 17763460612849444927
23598288 3 18195805168255660966
283562 15 18261957336870076338
3091708 16 9209268060092323704
3380486 145 18269536360265782285
3421961 26 18265334095850068579
352729 6 17980757138986139308
394222 165 17625562446270277195
4409770 3 18119242857819594693
458136 41 17544203031000177807
474 4 17691405634937008801
5104073 3 17975682902406412098
57672749 33 18267868474124929353
59755656 520 17616245884610275476
621550 5 17894631487192564711
6443956 14 18337672022339875389
6992083 37 18200050464222883475
7097593 13 18198349639909681163
7364860 26 18053386784087054425
77188 2 18409731789378223013
81228 2 18118980091314132869
84936 182 17552647258958939417
90316 7 18341620265278633675
9709674 26 17910104716835710982
9981440 41 17265765644345835378

> <PUBCHEM_SHAPE_MULTIPOLES>
424.08
6.95
5.43
1.12
2.09
6.56
0.01
-10.74
-1.61
-2.13
-0.31
0.42
0.42
0.06

> <PUBCHEM_SHAPE_SELFOVERLAP>
898.294

> <PUBCHEM_SHAPE_VOLUME>
238.1

> <PUBCHEM_COORDINATE_TYPE>
2
5
10

$$$$
