132070
  -OEChem-10241302543D

 55 54  0     1  0  0  0  0  0999 V2000
   -1.8781    0.9296    2.0416 O   0  0  0  0  0  0  0  0  0  0  0  0
    0.5730   -2.6549    1.0123 O   0  0  0  0  0  0  0  0  0  0  0  0
    1.2421   -0.1645   -1.3770 O   0  0  0  0  0  0  0  0  0  0  0  0
   -2.3770   -2.8367    0.2866 O   0  0  0  0  0  0  0  0  0  0  0  0
    4.9710   -1.1435    1.2853 O   0  0  0  0  0  0  0  0  0  0  0  0
    6.2571   -0.7350   -0.5236 O   0  0  0  0  0  0  0  0  0  0  0  0
   -3.2033   -3.5025   -2.2034 O   0  0  0  0  0  0  0  0  0  0  0  0
   -0.8151   -0.2097    0.3246 N   0  0  0  0  0  0  0  0  0  0  0  0
    2.8244   -0.0239    0.3149 N   0  0  0  0  0  0  0  0  0  0  0  0
   -3.7812   -2.4338   -1.5056 N   0  0  0  0  0  0  0  0  0  0  0  0
   -3.1996    0.3026    0.1311 C   0  0  2  0  0  0  0  0  0  0  0  0
   -4.1169    1.5182    0.3739 C   0  0  0  0  0  0  0  0  0  0  0  0
   -3.4799    2.8898    0.0644 C   0  0  0  0  0  0  0  0  0  0  0  0
   -3.9343   -1.0155    0.4344 C   0  0  0  0  0  0  0  0  0  0  0  0
   -1.9058    0.3797    0.9408 C   0  0  0  0  0  0  0  0  0  0  0  0
    0.4961   -0.2378    0.9289 C   0  0  2  0  0  0  0  0  0  0  0  0
    3.9822    0.1168   -0.5373 C   0  0  1  0  0  0  0  0  0  0  0  0
    4.2267    1.6060   -0.8626 C   0  0  0  0  0  0  0  0  0  0  0  0
   -4.4183    4.0558    0.3774 C   0  0  0  0  0  0  0  0  0  0  0  0
   -3.0658    2.9439   -1.4091 C   0  0  0  0  0  0  0  0  0  0  0  0
    1.5358   -0.1543   -0.1834 C   0  0  0  0  0  0  0  0  0  0  0  0
    0.6901   -1.4751    1.7996 C   0  0  0  0  0  0  0  0  0  0  0  0
   -3.2766   -2.1958   -0.2528 C   0  0  0  0  0  0  0  0  0  0  0  0
    3.2598    2.1607   -1.9132 C   0  0  0  0  0  0  0  0  0  0  0  0
    4.2061    2.4838    0.3919 C   0  0  0  0  0  0  0  0  0  0  0  0
    5.1874   -0.6038    0.0605 C   0  0  0  0  0  0  0  0  0  0  0  0
   -2.9284    0.2921   -0.9319 H   0  0  0  0  0  0  0  0  0  0  0  0
   -5.0282    1.4043   -0.2281 H   0  0  0  0  0  0  0  0  0  0  0  0
   -4.4416    1.5166    1.4230 H   0  0  0  0  0  0  0  0  0  0  0  0
   -2.5813    3.0269    0.6764 H   0  0  0  0  0  0  0  0  0  0  0  0
   -4.9789   -0.9582    0.1043 H   0  0  0  0  0  0  0  0  0  0  0  0
   -3.9530   -1.2176    1.5122 H   0  0  0  0  0  0  0  0  0  0  0  0
    0.6057    0.6572    1.5542 H   0  0  0  0  0  0  0  0  0  0  0  0
    3.7687   -0.4251   -1.4683 H   0  0  0  0  0  0  0  0  0  0  0  0
    5.2333    1.6858   -1.2953 H   0  0  0  0  0  0  0  0  0  0  0  0
   -5.3317    4.0018   -0.2246 H   0  0  0  0  0  0  0  0  0  0  0  0
   -3.9324    5.0158    0.1738 H   0  0  0  0  0  0  0  0  0  0  0  0
   -4.7078    4.0439    1.4334 H   0  0  0  0  0  0  0  0  0  0  0  0
   -2.7131    3.9471   -1.6737 H   0  0  0  0  0  0  0  0  0  0  0  0
   -2.2425    2.2564   -1.6241 H   0  0  0  0  0  0  0  0  0  0  0  0
   -3.9039    2.6996   -2.0706 H   0  0  0  0  0  0  0  0  0  0  0  0
   -0.9379   -0.6576   -0.5791 H   0  0  0  0  0  0  0  0  0  0  0  0
    2.9677    0.0184    1.3196 H   0  0  0  0  0  0  0  0  0  0  0  0
   -0.0800   -1.5225    2.5766 H   0  0  0  0  0  0  0  0  0  0  0  0
    1.6648   -1.4905    2.2967 H   0  0  0  0  0  0  0  0  0  0  0  0
    3.2298    1.5184   -2.7991 H   0  0  0  0  0  0  0  0  0  0  0  0
    3.5833    3.1562   -2.2372 H   0  0  0  0  0  0  0  0  0  0  0  0
    2.2441    2.2632   -1.5202 H   0  0  0  0  0  0  0  0  0  0  0  0
    4.8963    2.1027    1.1516 H   0  0  0  0  0  0  0  0  0  0  0  0
    4.5183    3.5049    0.1462 H   0  0  0  0  0  0  0  0  0  0  0  0
    3.2065    2.5463    0.8347 H   0  0  0  0  0  0  0  0  0  0  0  0
   -4.5913   -1.9926   -1.9252 H   0  0  0  0  0  0  0  0  0  0  0  0
    1.3256   -2.6768    0.3973 H   0  0  0  0  0  0  0  0  0  0  0  0
    5.7618   -1.6161    1.6224 H   0  0  0  0  0  0  0  0  0  0  0  0
   -2.5429   -3.0247   -2.7333 H   0  0  0  0  0  0  0  0  0  0  0  0
  1 15  2  0  0  0  0
  2 22  1  0  0  0  0
  2 53  1  0  0  0  0
  3 21  2  0  0  0  0
  4 23  2  0  0  0  0
  5 26  1  0  0  0  0
  5 54  1  0  0  0  0
  6 26  2  0  0  0  0
  7 10  1  0  0  0  0
  7 55  1  0  0  0  0
  8 15  1  0  0  0  0
  8 16  1  0  0  0  0
  8 42  1  0  0  0  0
  9 17  1  0  0  0  0
  9 21  1  0  0  0  0
  9 43  1  0  0  0  0
 10 23  1  0  0  0  0
 10 52  1  0  0  0  0
 11 12  1  0  0  0  0
 11 14  1  0  0  0  0
 11 15  1  0  0  0  0
 11 27  1  0  0  0  0
 12 13  1  0  0  0  0
 12 28  1  0  0  0  0
 12 29  1  0  0  0  0
 13 19  1  0  0  0  0
 13 20  1  0  0  0  0
 13 30  1  0  0  0  0
 14 23  1  0  0  0  0
 14 31  1  0  0  0  0
 14 32  1  0  0  0  0
 16 21  1  0  0  0  0
 16 22  1  0  0  0  0
 16 33  1  0  0  0  0
 17 18  1  0  0  0  0
 17 26  1  0  0  0  0
 17 34  1  0  0  0  0
 18 24  1  0  0  0  0
 18 25  1  0  0  0  0
 18 35  1  0  0  0  0
 19 36  1  0  0  0  0
 19 37  1  0  0  0  0
 19 38  1  0  0  0  0
 20 39  1  0  0  0  0
 20 40  1  0  0  0  0
 20 41  1  0  0  0  0
 22 44  1  0  0  0  0
 22 45  1  0  0  0  0
 24 46  1  0  0  0  0
 24 47  1  0  0  0  0
 24 48  1  0  0  0  0
 25 49  1  0  0  0  0
 25 50  1  0  0  0  0
 25 51  1  0  0  0  0
M  END
> <PUBCHEM_COMPOUND_CID>
132070

> <PUBCHEM_CONFORMER_RMSD>
1.2

> <PUBCHEM_CONFORMER_DIVERSEORDER>
2
38
94
80
24
30
71
59
5
15
91
21
74
49
103
97
35
1
18
33
95
32
89
19
39
67
81
7
28
31
56
66
14
65
79
78
70
77
12
64
23
29
6
16
96
75
87
61
72
85
90
100
45
8
41
36
88
48
40
17
44
52
84
58
86
13
51
37
101
83
93
46
47
11
55
20
3
76
60
10
63
53
27
25
99
42
92
43
54
98
50
62
34
82
102
9
73
68
22
69
4
57
26

> <PUBCHEM_MMFF94_PARTIAL_CHARGES>
25
1 -0.57
10 -0.39
11 0.06
14 0.06
15 0.57
16 0.36
17 0.36
2 -0.68
21 0.57
22 0.28
23 0.57
26 0.66
3 -0.57
4 -0.57
42 0.37
43 0.37
5 -0.65
52 0.37
53 0.4
54 0.5
55 0.4
6 -0.57
7 -0.44
8 -0.73
9 -0.73

> <PUBCHEM_EFFECTIVE_ROTOR_COUNT>
14

> <PUBCHEM_PHARMACOPHORE_FEATURES>
14
1 1 acceptor
1 10 donor
1 2 acceptor
1 2 donor
1 3 acceptor
1 4 acceptor
1 5 acceptor
1 6 acceptor
1 8 donor
1 9 donor
3 13 19 20 hydrophobe
3 18 24 25 hydrophobe
3 5 6 26 anion
4 11 12 13 14 hydrophobe

> <PUBCHEM_HEAVY_ATOM_COUNT>
26

> <PUBCHEM_ATOM_DEF_STEREO_COUNT>
2

> <PUBCHEM_ATOM_UDEF_STEREO_COUNT>
1

> <PUBCHEM_BOND_DEF_STEREO_COUNT>
0

> <PUBCHEM_BOND_UDEF_STEREO_COUNT>
0

> <PUBCHEM_ISOTOPIC_ATOM_COUNT>
0

> <PUBCHEM_COMPONENT_COUNT>
1

> <PUBCHEM_CACTVS_TAUTO_COUNT>
12

> <PUBCHEM_CONFORMER_ID>
000203E600000002

> <PUBCHEM_MMFF94_ENERGY>
48.4474

> <PUBCHEM_FEATURE_SELFOVERLAP>
71.141

> <PUBCHEM_SHAPE_FINGERPRINT>
11513181 2 18263380199463338732
12107183 9 18046059359674640346
12403260 363 18187645838362655296
12788726 201 18339629106420443399
13167823 11 18408324414874594810
13583140 156 17703782613955634558
14251751 93 18411699872263329207
14251764 38 18334021617940183348
14466204 15 17969218937459295360
15463212 79 18407755937382451915
17349148 13 18337396036568986242
17844677 252 18409175428242250328
1813 80 13542199315367424394
21709351 56 18261111859609010180
23402539 116 18335140890938568266
23559900 14 17987808393440176990
6328613 192 17823155513948247708
633830 44 17894356579146677930

> <PUBCHEM_SHAPE_MULTIPOLES>
479.04
12.11
4.17
1.62
11.49
1.02
-0.36
3.55
-1.51
-6.06
-1.21
-0.36
-0.51
-2.31

> <PUBCHEM_SHAPE_SELFOVERLAP>
934.617

> <PUBCHEM_SHAPE_VOLUME>
286.7

> <PUBCHEM_COORDINATE_TYPE>
2
5
10

$$$$
