11998575
  -OEChem-10241303083D

 52 55  0     1  0  0  0  0  0999 V2000
    1.8104    2.0149    0.1835 O   0  0  0  0  0  0  0  0  0  0  0  0
   -2.4369    0.0373    1.0301 O   0  0  0  0  0  0  0  0  0  0  0  0
   -1.2886   -2.4913    1.0078 O   0  0  0  0  0  0  0  0  0  0  0  0
    8.0778    0.1256    0.4689 O   0  0  0  0  0  0  0  0  0  0  0  0
    3.7898    3.0697   -0.2243 O   0  0  0  0  0  0  0  0  0  0  0  0
   -8.4730   -0.1028   -0.6020 O   0  0  0  0  0  0  0  0  0  0  0  0
    3.1291   -0.4864    0.1291 C   0  0  0  0  0  0  0  0  0  0  0  0
    1.6822   -0.4175    0.3688 C   0  0  0  0  0  0  0  0  0  0  0  0
    3.8519    0.7024   -0.0736 C   0  0  0  0  0  0  0  0  0  0  0  0
    5.9210   -0.5313   -0.3403 C   0  0  0  0  0  0  0  0  0  0  0  0
    1.0641    0.8349    0.3886 C   0  0  0  0  0  0  0  0  0  0  0  0
    5.2365    0.6795   -0.3063 C   0  0  0  0  0  0  0  0  0  0  0  0
    3.8493   -1.6955    0.0889 C   0  0  0  0  0  0  0  0  0  0  0  0
    7.3908   -0.5547   -0.5882 C   0  0  1  0  0  0  0  0  0  0  0  0
    0.8526   -1.5305    0.5838 C   0  0  0  0  0  0  0  0  0  0  0  0
    5.2279   -1.7182   -0.1428 C   0  0  0  0  0  0  0  0  0  0  0  0
    3.1789    2.0232   -0.0499 C   0  0  0  0  0  0  0  0  0  0  0  0
   -0.3056    1.0035    0.6081 C   0  0  0  0  0  0  0  0  0  0  0  0
   -1.1013   -0.1155    0.8172 C   0  0  0  0  0  0  0  0  0  0  0  0
   -0.5228   -1.3816    0.8053 C   0  0  0  0  0  0  0  0  0  0  0  0
    7.7783    0.0976   -1.9192 C   0  0  0  0  0  0  0  0  0  0  0  0
   -3.0685    1.1586    0.4140 C   0  0  0  0  0  0  0  0  0  0  0  0
   -4.5059    0.8235    0.1437 C   0  0  0  0  0  0  0  0  0  0  0  0
   -5.4694    1.0964    1.1079 C   0  0  0  0  0  0  0  0  0  0  0  0
   -4.8605    0.2423   -1.0685 C   0  0  0  0  0  0  0  0  0  0  0  0
   -1.8611   -3.1017   -0.1465 C   0  0  0  0  0  0  0  0  0  0  0  0
   -6.8055    0.7839    0.8566 C   0  0  0  0  0  0  0  0  0  0  0  0
   -6.1965   -0.0700   -1.3198 C   0  0  0  0  0  0  0  0  0  0  0  0
   -7.1690    0.2008   -0.3573 C   0  0  0  0  0  0  0  0  0  0  0  0
   -8.7757   -0.6973   -1.8632 C   0  0  0  0  0  0  0  0  0  0  0  0
    5.7815    1.6091   -0.4511 H   0  0  0  0  0  0  0  0  0  0  0  0
    3.3582   -2.6533    0.2366 H   0  0  0  0  0  0  0  0  0  0  0  0
    7.7581   -1.5879   -0.5895 H   0  0  0  0  0  0  0  0  0  0  0  0
    1.2558   -2.5398    0.5849 H   0  0  0  0  0  0  0  0  0  0  0  0
    5.7419   -2.6756   -0.1652 H   0  0  0  0  0  0  0  0  0  0  0  0
   -0.7020    2.0139    0.6352 H   0  0  0  0  0  0  0  0  0  0  0  0
    8.8554   -0.0093   -2.0904 H   0  0  0  0  0  0  0  0  0  0  0  0
    7.2474   -0.3618   -2.7592 H   0  0  0  0  0  0  0  0  0  0  0  0
    7.5743    1.1739   -1.9222 H   0  0  0  0  0  0  0  0  0  0  0  0
   -2.5968    1.4280   -0.5411 H   0  0  0  0  0  0  0  0  0  0  0  0
   -3.0028    2.0263    1.0822 H   0  0  0  0  0  0  0  0  0  0  0  0
    9.0306    0.0692    0.2822 H   0  0  0  0  0  0  0  0  0  0  0  0
   -5.1972    1.5484    2.0577 H   0  0  0  0  0  0  0  0  0  0  0  0
   -4.1099    0.0242   -1.8233 H   0  0  0  0  0  0  0  0  0  0  0  0
   -2.4492   -3.9645    0.1780 H   0  0  0  0  0  0  0  0  0  0  0  0
   -2.5241   -2.4015   -0.6646 H   0  0  0  0  0  0  0  0  0  0  0  0
   -1.0762   -3.4486   -0.8260 H   0  0  0  0  0  0  0  0  0  0  0  0
   -7.5586    0.9968    1.6103 H   0  0  0  0  0  0  0  0  0  0  0  0
   -6.4092   -0.5220   -2.2826 H   0  0  0  0  0  0  0  0  0  0  0  0
   -8.2919   -1.6737   -1.9743 H   0  0  0  0  0  0  0  0  0  0  0  0
   -8.5420   -0.0216   -2.6931 H   0  0  0  0  0  0  0  0  0  0  0  0
   -9.8564   -0.8714   -1.8875 H   0  0  0  0  0  0  0  0  0  0  0  0
  1 11  1  0  0  0  0
  1 17  1  0  0  0  0
  2 19  1  0  0  0  0
  2 22  1  0  0  0  0
  3 20  1  0  0  0  0
  3 26  1  0  0  0  0
  4 14  1  0  0  0  0
  4 42  1  0  0  0  0
  5 17  2  0  0  0  0
  6 29  1  0  0  0  0
  6 30  1  0  0  0  0
  7  8  1  0  0  0  0
  7  9  2  0  0  0  0
  7 13  1  0  0  0  0
  8 11  1  0  0  0  0
  8 15  2  0  0  0  0
  9 12  1  0  0  0  0
  9 17  1  0  0  0  0
 10 12  2  0  0  0  0
 10 14  1  0  0  0  0
 10 16  1  0  0  0  0
 11 18  2  0  0  0  0
 12 31  1  0  0  0  0
 13 16  2  0  0  0  0
 13 32  1  0  0  0  0
 14 21  1  0  0  0  0
 14 33  1  0  0  0  0
 15 20  1  0  0  0  0
 15 34  1  0  0  0  0
 16 35  1  0  0  0  0
 18 19  1  0  0  0  0
 18 36  1  0  0  0  0
 19 20  2  0  0  0  0
 21 37  1  0  0  0  0
 21 38  1  0  0  0  0
 21 39  1  0  0  0  0
 22 23  1  0  0  0  0
 22 40  1  0  0  0  0
 22 41  1  0  0  0  0
 23 24  2  0  0  0  0
 23 25  1  0  0  0  0
 24 27  1  0  0  0  0
 24 43  1  0  0  0  0
 25 28  2  0  0  0  0
 25 44  1  0  0  0  0
 26 45  1  0  0  0  0
 26 46  1  0  0  0  0
 26 47  1  0  0  0  0
 27 29  2  0  0  0  0
 27 48  1  0  0  0  0
 28 29  1  0  0  0  0
 28 49  1  0  0  0  0
 30 50  1  0  0  0  0
 30 51  1  0  0  0  0
 30 52  1  0  0  0  0
M  END
> <PUBCHEM_COMPOUND_CID>
11998575

> <PUBCHEM_CONFORMER_RMSD>
0.8

> <PUBCHEM_CONFORMER_DIVERSEORDER>
1
23
70
88
65
83
80
85
78
62
29
84
68
22
6
69
76
37
74
75
43
82
56
28
57
36
33
79
77
24
38
64
3
58
5
54
32
31
81
18
21
45
39
63
20
27
44
59
42
73
50
12
19
26
30
49
52
67
15
66
34
41
46
9
17
14
55
35
4
16
86
87
61
7
13
47
72
40
8
10
51
60
71
11
53
25
48
2

> <PUBCHEM_MMFF94_PARTIAL_CHARGES>
37
1 -0.23
10 -0.14
11 0.08
12 -0.15
13 -0.15
14 0.42
15 -0.15
16 -0.15
17 0.63
18 -0.15
19 0.08
2 -0.36
20 0.08
22 0.42
23 -0.14
24 -0.15
25 -0.15
26 0.28
27 -0.15
28 -0.15
29 0.08
3 -0.36
30 0.28
31 0.15
32 0.15
34 0.15
35 0.15
36 0.15
4 -0.68
42 0.4
43 0.15
44 0.15
48 0.15
49 0.15
5 -0.57
6 -0.36
9 0.09

> <PUBCHEM_EFFECTIVE_ROTOR_COUNT>
6

> <PUBCHEM_PHARMACOPHORE_FEATURES>
10
1 2 acceptor
1 3 acceptor
1 4 acceptor
1 4 donor
1 5 acceptor
1 6 acceptor
6 1 7 8 9 11 17 rings
6 23 24 25 27 28 29 rings
6 7 9 10 12 13 16 rings
6 8 11 15 18 19 20 rings

> <PUBCHEM_HEAVY_ATOM_COUNT>
30

> <PUBCHEM_ATOM_DEF_STEREO_COUNT>
0

> <PUBCHEM_ATOM_UDEF_STEREO_COUNT>
1

> <PUBCHEM_BOND_DEF_STEREO_COUNT>
0

> <PUBCHEM_BOND_UDEF_STEREO_COUNT>
0

> <PUBCHEM_ISOTOPIC_ATOM_COUNT>
0

> <PUBCHEM_COMPONENT_COUNT>
1

> <PUBCHEM_CACTVS_TAUTO_COUNT>
1

> <PUBCHEM_CONFORMER_ID>
00B7156F00000001

> <PUBCHEM_MMFF94_ENERGY>
122.9084

> <PUBCHEM_FEATURE_SELFOVERLAP>
50.801

> <PUBCHEM_SHAPE_FINGERPRINT>
10050765 1 18194124246873038960
10299344 5 18060700581333084533
10625338 86 15791728577944639861
10670039 82 17603863360868622061
10674148 151 16415480450846128187
10693767 8 18128257788105828126
11991303 11 17676494990434390779
12166972 35 18060419105797913504
12236239 1 18060419093513943105
12838862 33 18334849529369096712
13540713 4 18121785190542771264
1361 2 18201724990251930750
13668630 136 17346884429260840924
14068700 675 17988926651941252856
14117953 113 18410583868984542846
14170010 4 18410293614757211504
14251764 18 18410858737451998424
14856354 85 17346596388138711445
150020 25 18040992969640712191
15131766 46 15649335366843587262
15142383 8 16732986419029346214
15183329 4 18411136926567880331
15419008 47 17313101943341150789
15461852 350 16917356926447076728
1577012 14 18270683061168673137
15849732 13 17386011671389877839
16090146 7 17775019989199132282
16120349 18 18343017831417570096
18335252 114 17894914044453652132
18681886 176 18059565889343305409
20028762 73 18201436931032066495
21150785 3 18341894082286470410
21344244 246 18130510721326682030
21521239 73 18343016688433548843
21792961 116 17895199845110944450
221357 26 18408038489932178165
22224240 67 10737291263935455960
22311459 1 18409169888008452920
23522609 53 17773339957640145641
23559900 14 18341895234071033256
23569943 247 17127633972478645006
23576562 1 18042133213656896053
249057 3 18410013260355066710
3004659 81 18202280299099069496
335352 9 18409453592273656716
3633792 109 18412265012576536993
4325135 7 18272931614140011189
484989 97 18338520867155755115
57527306 92 15502376733822739006
59682541 35 10807924968892793350

> <PUBCHEM_SHAPE_MULTIPOLES>
582.17
24.52
2.22
1.21
15.83
0.44
-0.42
-0.44
-11.33
-1.2
0.25
1.11
0.13
-0.97

> <PUBCHEM_SHAPE_SELFOVERLAP>
1276.684

> <PUBCHEM_SHAPE_VOLUME>
315.3

> <PUBCHEM_COORDINATE_TYPE>
2
5
10

$$$$
