9807431
  -OEChem-10241302473D

 76 79  0     1  0  0  0  0  0999 V2000
   -0.7693    0.0142   -1.7678 O   0  0  0  0  0  0  0  0  0  0  0  0
    0.9771   -2.5487   -1.0330 O   0  0  0  0  0  0  0  0  0  0  0  0
    0.9152   -2.9646    1.3006 O   0  0  0  0  0  0  0  0  0  0  0  0
   -3.3109    2.1913    1.3365 O   0  0  0  0  0  0  0  0  0  0  0  0
    2.1213    0.0836    0.3660 O   0  0  0  0  0  0  0  0  0  0  0  0
   -0.7909   -0.8090    0.4436 N   0  0  0  0  0  0  0  0  0  0  0  0
    0.9258    1.9301   -0.3460 N   0  0  0  0  0  0  0  0  0  0  0  0
   -3.4214    1.4092   -0.8758 N   0  0  0  0  0  0  0  0  0  0  0  0
    3.1815    1.8389   -0.7767 N   0  0  0  0  0  0  0  0  0  0  0  0
   -0.3575    1.5022    0.1498 C   0  0  2  0  0  0  0  0  0  0  0  0
   -0.3076    1.1008    1.5978 C   0  0  0  0  0  0  0  0  0  0  0  0
   -0.6741    0.1673   -0.5582 C   0  0  0  0  0  0  0  0  0  0  0  0
   -0.5722   -0.2647    1.7165 C   0  0  0  0  0  0  0  0  0  0  0  0
   -1.4420    2.5321   -0.1438 C   0  0  0  0  0  0  0  0  0  0  0  0
   -1.0785   -2.2057    0.2179 C   0  0  0  0  0  0  0  0  0  0  0  0
   -0.0527    1.8721    2.7195 C   0  0  0  0  0  0  0  0  0  0  0  0
   -0.5912   -0.9000    2.9463 C   0  0  0  0  0  0  0  0  0  0  0  0
    0.1957   -3.0370    0.0615 C   0  0  0  0  0  0  0  0  0  0  0  0
   -2.8309    2.0346    0.2187 C   0  0  0  0  0  0  0  0  0  0  0  0
   -0.0679    1.2473    3.9690 C   0  0  0  0  0  0  0  0  0  0  0  0
   -0.3350   -0.1275    4.0811 C   0  0  0  0  0  0  0  0  0  0  0  0
    2.0960    1.1743   -0.1991 C   0  0  0  0  0  0  0  0  0  0  0  0
   -4.7048    0.8165   -0.9417 C   0  0  0  0  0  0  0  0  0  0  0  0
    0.5076   -2.9962   -2.2972 C   0  0  0  0  0  0  0  0  0  0  0  0
    2.1262   -3.7080    1.2660 C   0  0  0  0  0  0  0  0  0  0  0  0
    4.5282    1.4111   -0.8388 C   0  0  0  0  0  0  0  0  0  0  0  0
    1.3965   -2.4278   -3.3827 C   0  0  0  0  0  0  0  0  0  0  0  0
    2.8215   -3.5805    2.6046 C   0  0  0  0  0  0  0  0  0  0  0  0
   -5.1408    0.2285   -2.1292 C   0  0  0  0  0  0  0  0  0  0  0  0
   -5.5338    0.8205    0.1801 C   0  0  0  0  0  0  0  0  0  0  0  0
    5.4862    2.2124   -1.4598 C   0  0  0  0  0  0  0  0  0  0  0  0
    4.8983    0.1881   -0.2792 C   0  0  0  0  0  0  0  0  0  0  0  0
   -6.4057   -0.3556   -2.1946 C   0  0  0  0  0  0  0  0  0  0  0  0
   -6.7987    0.2363    0.1146 C   0  0  0  0  0  0  0  0  0  0  0  0
   -7.2347   -0.3518   -1.0727 C   0  0  0  0  0  0  0  0  0  0  0  0
    6.8143    1.7908   -1.5212 C   0  0  0  0  0  0  0  0  0  0  0  0
    6.2264   -0.2335   -0.3407 C   0  0  0  0  0  0  0  0  0  0  0  0
    7.1845    0.5679   -0.9615 C   0  0  0  0  0  0  0  0  0  0  0  0
   -8.5867   -0.9772   -1.1434 C   0  0  0  0  0  0  0  0  0  0  0  0
    8.6050    0.1181   -1.0271 C   0  0  0  0  0  0  0  0  0  0  0  0
   -1.2661    3.4591    0.4177 H   0  0  0  0  0  0  0  0  0  0  0  0
   -1.4242    2.8225   -1.2030 H   0  0  0  0  0  0  0  0  0  0  0  0
   -1.6926   -2.5854    1.0416 H   0  0  0  0  0  0  0  0  0  0  0  0
   -1.6876   -2.2696   -0.6894 H   0  0  0  0  0  0  0  0  0  0  0  0
    0.9947    2.8358   -0.8004 H   0  0  0  0  0  0  0  0  0  0  0  0
    0.1547    2.9335    2.6375 H   0  0  0  0  0  0  0  0  0  0  0  0
   -0.8038   -1.9567    3.0563 H   0  0  0  0  0  0  0  0  0  0  0  0
   -0.0741   -4.0877   -0.1067 H   0  0  0  0  0  0  0  0  0  0  0  0
    0.1286    1.8299    4.8650 H   0  0  0  0  0  0  0  0  0  0  0  0
   -0.3437   -0.5930    5.0631 H   0  0  0  0  0  0  0  0  0  0  0  0
   -2.8872    1.3607   -1.7405 H   0  0  0  0  0  0  0  0  0  0  0  0
    2.9886    2.7399   -1.2069 H   0  0  0  0  0  0  0  0  0  0  0  0
   -0.5223   -2.6719   -2.4704 H   0  0  0  0  0  0  0  0  0  0  0  0
    0.5425   -4.0907   -2.3342 H   0  0  0  0  0  0  0  0  0  0  0  0
    2.7866   -3.3213    0.4824 H   0  0  0  0  0  0  0  0  0  0  0  0
    1.9071   -4.7614    1.0600 H   0  0  0  0  0  0  0  0  0  0  0  0
   -4.5042    0.2177   -3.0101 H   0  0  0  0  0  0  0  0  0  0  0  0
   -5.2666    1.2544    1.1333 H   0  0  0  0  0  0  0  0  0  0  0  0
    1.3893   -1.3332   -3.3536 H   0  0  0  0  0  0  0  0  0  0  0  0
    2.4349   -2.7421   -3.2341 H   0  0  0  0  0  0  0  0  0  0  0  0
    1.0662   -2.7571   -4.3719 H   0  0  0  0  0  0  0  0  0  0  0  0
    3.0372   -2.5300    2.8271 H   0  0  0  0  0  0  0  0  0  0  0  0
    2.1783   -3.9503    3.4099 H   0  0  0  0  0  0  0  0  0  0  0  0
    3.7590   -4.1433    2.6141 H   0  0  0  0  0  0  0  0  0  0  0  0
    5.2111    3.1677   -1.8994 H   0  0  0  0  0  0  0  0  0  0  0  0
    4.2149   -0.4868    0.2169 H   0  0  0  0  0  0  0  0  0  0  0  0
   -6.7333   -0.8125   -3.1246 H   0  0  0  0  0  0  0  0  0  0  0  0
   -7.4354    0.2431    0.9954 H   0  0  0  0  0  0  0  0  0  0  0  0
    7.5520    2.4248   -2.0061 H   0  0  0  0  0  0  0  0  0  0  0  0
    6.5038   -1.1876    0.1000 H   0  0  0  0  0  0  0  0  0  0  0  0
   -9.0063   -0.8981   -2.1520 H   0  0  0  0  0  0  0  0  0  0  0  0
   -9.2884   -0.4800   -0.4650 H   0  0  0  0  0  0  0  0  0  0  0  0
   -8.5257   -2.0354   -0.8706 H   0  0  0  0  0  0  0  0  0  0  0  0
    9.0971    0.4942   -1.9305 H   0  0  0  0  0  0  0  0  0  0  0  0
    8.6727   -0.9747   -1.0572 H   0  0  0  0  0  0  0  0  0  0  0  0
    9.1541    0.4795   -0.1520 H   0  0  0  0  0  0  0  0  0  0  0  0
  1 12  2  0  0  0  0
  2 18  1  0  0  0  0
  2 24  1  0  0  0  0
  3 18  1  0  0  0  0
  3 25  1  0  0  0  0
  4 19  2  0  0  0  0
  5 22  2  0  0  0  0
  6 12  1  0  0  0  0
  6 13  1  0  0  0  0
  6 15  1  0  0  0  0
  7 10  1  0  0  0  0
  7 22  1  0  0  0  0
  7 45  1  0  0  0  0
  8 19  1  0  0  0  0
  8 23  1  0  0  0  0
  8 51  1  0  0  0  0
  9 22  1  0  0  0  0
  9 26  1  0  0  0  0
  9 52  1  0  0  0  0
 10 11  1  0  0  0  0
 10 12  1  0  0  0  0
 10 14  1  0  0  0  0
 11 13  1  0  0  0  0
 11 16  2  0  0  0  0
 13 17  2  0  0  0  0
 14 19  1  0  0  0  0
 14 41  1  0  0  0  0
 14 42  1  0  0  0  0
 15 18  1  0  0  0  0
 15 43  1  0  0  0  0
 15 44  1  0  0  0  0
 16 20  1  0  0  0  0
 16 46  1  0  0  0  0
 17 21  1  0  0  0  0
 17 47  1  0  0  0  0
 18 48  1  0  0  0  0
 20 21  2  0  0  0  0
 20 49  1  0  0  0  0
 21 50  1  0  0  0  0
 23 29  2  0  0  0  0
 23 30  1  0  0  0  0
 24 27  1  0  0  0  0
 24 53  1  0  0  0  0
 24 54  1  0  0  0  0
 25 28  1  0  0  0  0
 25 55  1  0  0  0  0
 25 56  1  0  0  0  0
 26 31  2  0  0  0  0
 26 32  1  0  0  0  0
 27 59  1  0  0  0  0
 27 60  1  0  0  0  0
 27 61  1  0  0  0  0
 28 62  1  0  0  0  0
 28 63  1  0  0  0  0
 28 64  1  0  0  0  0
 29 33  1  0  0  0  0
 29 57  1  0  0  0  0
 30 34  2  0  0  0  0
 30 58  1  0  0  0  0
 31 36  1  0  0  0  0
 31 65  1  0  0  0  0
 32 37  2  0  0  0  0
 32 66  1  0  0  0  0
 33 35  2  0  0  0  0
 33 67  1  0  0  0  0
 34 35  1  0  0  0  0
 34 68  1  0  0  0  0
 35 39  1  0  0  0  0
 36 38  2  0  0  0  0
 36 69  1  0  0  0  0
 37 38  1  0  0  0  0
 37 70  1  0  0  0  0
 38 40  1  0  0  0  0
 39 71  1  0  0  0  0
 39 72  1  0  0  0  0
 39 73  1  0  0  0  0
 40 74  1  0  0  0  0
 40 75  1  0  0  0  0
 40 76  1  0  0  0  0
M  END
> <PUBCHEM_COMPOUND_CID>
9807431

> <PUBCHEM_CONFORMER_RMSD>
1.2

> <PUBCHEM_CONFORMER_DIVERSEORDER>
1
44
35
41
3
18
66
6
49
26
32
22
51
62
17
46
42
14
7
13
9
33
65
31
63
4
58
25
20
61
56
47
10
52
50
40
36
67
30
24
28
12
15
23
57
16
53
19
45
29
55
43
27
2
21
59
37
60
38
11
8
54
39
68
5
48
34
64

> <PUBCHEM_MMFF94_PARTIAL_CHARGES>
53
1 -0.57
10 0.5
11 -0.14
12 0.57
13 0.12
14 0.06
15 0.3
16 -0.15
17 -0.15
18 0.56
19 0.57
2 -0.56
20 -0.15
21 -0.15
22 0.69
23 0.12
24 0.28
25 0.28
26 0.12
29 -0.15
3 -0.56
30 -0.15
31 -0.15
32 -0.15
33 -0.15
34 -0.15
35 -0.14
36 -0.15
37 -0.15
38 -0.14
39 0.14
4 -0.57
40 0.14
45 0.37
46 0.15
47 0.15
49 0.15
5 -0.57
50 0.15
51 0.37
52 0.37
57 0.15
58 0.15
6 -0.48
65 0.15
66 0.15
67 0.15
68 0.15
69 0.15
7 -0.73
70 0.15
8 -0.55
9 -0.55

> <PUBCHEM_EFFECTIVE_ROTOR_COUNT>
14.4

> <PUBCHEM_PHARMACOPHORE_FEATURES>
12
1 1 acceptor
1 2 acceptor
1 3 acceptor
1 4 acceptor
1 5 acceptor
1 7 donor
1 8 donor
1 9 donor
5 6 10 11 12 13 rings
6 11 13 16 17 20 21 rings
6 23 29 30 33 34 35 rings
6 26 31 32 36 37 38 rings

> <PUBCHEM_HEAVY_ATOM_COUNT>
40

> <PUBCHEM_ATOM_DEF_STEREO_COUNT>
1

> <PUBCHEM_ATOM_UDEF_STEREO_COUNT>
0

> <PUBCHEM_BOND_DEF_STEREO_COUNT>
0

> <PUBCHEM_BOND_UDEF_STEREO_COUNT>
0

> <PUBCHEM_ISOTOPIC_ATOM_COUNT>
0

> <PUBCHEM_COMPONENT_COUNT>
1

> <PUBCHEM_CACTVS_TAUTO_COUNT>
6

> <PUBCHEM_CONFORMER_ID>
0095A64700000001

> <PUBCHEM_MMFF94_ENERGY>
118.7419

> <PUBCHEM_FEATURE_SELFOVERLAP>
61.073

> <PUBCHEM_SHAPE_FINGERPRINT>
10483366 6 18410854390960886575
11135926 11 18260552221355065673
11297750 10 11605307199272670561
11421498 54 17489028158744231489
11763715 3 17108761843293715874
11991303 11 17313954146055757931
12522641 33 17748544831538669711
12597179 24 17603310353426335130
13150687 139 17530965791095582168
14040221 15 18334860476893555494
14068700 675 17132119052301694512
14114207 22 17894907374791460062
15840311 113 12103555412453350707
15849732 13 14490193825356446244
20721686 146 13407061588224686207
21344244 246 18187360987378366698
21927370 108 15410625782762184032
249057 3 18041283257764149548
3383291 50 18409169926610378514
4017518 198 16153431636641849002
57527358 35 17680977505391467903
57527452 28 18060140955025182460
6669772 16 17530965756831108243

> <PUBCHEM_SHAPE_MULTIPOLES>
773.91
17.62
3.57
3.43
1.76
3.33
3.31
-3.8
-15.24
-2.29
0.63
-0.15
0.9
-2.45

> <PUBCHEM_SHAPE_SELFOVERLAP>
1655.691

> <PUBCHEM_SHAPE_VOLUME>
428.5

> <PUBCHEM_COORDINATE_TYPE>
2
5
10

$$$$
