126536
  -OEChem-10241303023D

 24 23  0     1  0  0  0  0  0999 V2000
   -0.0022    3.0352   -0.2934 S   0  0  0  0  0  0  0  0  0  0  0  0
   -1.3850   -1.8867    0.5046 O   0  0  0  0  0  0  0  0  0  0  0  0
   -3.0942   -0.4161    0.2678 O   0  0  0  0  0  0  0  0  0  0  0  0
   -0.1690   -0.4668   -2.1853 O   0  0  0  0  0  0  0  0  0  0  0  0
    2.7303    0.0408    0.7182 O   0  0  0  0  0  0  0  0  0  0  0  0
    0.4789   -0.0422    0.0295 N   0  0  0  0  0  0  0  0  0  0  0  0
   -0.8371    0.4516    0.4462 C   0  0  1  0  0  0  0  0  0  0  0  0
   -1.2499    1.7056   -0.3287 C   0  0  0  0  0  0  0  0  0  0  0  0
   -1.8955   -0.6374    0.3901 C   0  0  0  0  0  0  0  0  0  0  0  0
    0.6954   -0.4723   -1.3037 C   0  0  0  0  0  0  0  0  0  0  0  0
    1.5316   -0.0837    0.9770 C   0  0  0  0  0  0  0  0  0  0  0  0
    2.0772   -0.9721   -1.6454 C   0  0  0  0  0  0  0  0  0  0  0  0
    1.1196   -0.2558    2.4231 C   0  0  0  0  0  0  0  0  0  0  0  0
   -0.8134    0.7519    1.4979 H   0  0  0  0  0  0  0  0  0  0  0  0
   -2.1745    2.1147    0.0947 H   0  0  0  0  0  0  0  0  0  0  0  0
   -1.4706    1.4800   -1.3765 H   0  0  0  0  0  0  0  0  0  0  0  0
    2.4033   -1.7462   -0.9463 H   0  0  0  0  0  0  0  0  0  0  0  0
    2.0501   -1.4299   -2.6403 H   0  0  0  0  0  0  0  0  0  0  0  0
    2.7844   -0.1402   -1.6862 H   0  0  0  0  0  0  0  0  0  0  0  0
    0.8944    0.7179    2.8656 H   0  0  0  0  0  0  0  0  0  0  0  0
    1.9531   -0.7013    2.9760 H   0  0  0  0  0  0  0  0  0  0  0  0
    0.2676   -0.9321    2.5228 H   0  0  0  0  0  0  0  0  0  0  0  0
    0.9668    2.3566   -0.9247 H   0  0  0  0  0  0  0  0  0  0  0  0
   -2.0848   -2.5734    0.4728 H   0  0  0  0  0  0  0  0  0  0  0  0
  1  8  1  0  0  0  0
  1 23  1  0  0  0  0
  2  9  1  0  0  0  0
  2 24  1  0  0  0  0
  3  9  2  0  0  0  0
  4 10  2  0  0  0  0
  5 11  2  0  0  0  0
  6  7  1  0  0  0  0
  6 10  1  0  0  0  0
  6 11  1  0  0  0  0
  7  8  1  0  0  0  0
  7  9  1  0  0  0  0
  7 14  1  0  0  0  0
  8 15  1  0  0  0  0
  8 16  1  0  0  0  0
 10 12  1  0  0  0  0
 11 13  1  0  0  0  0
 12 17  1  0  0  0  0
 12 18  1  0  0  0  0
 12 19  1  0  0  0  0
 13 20  1  0  0  0  0
 13 21  1  0  0  0  0
 13 22  1  0  0  0  0
M  END
> <PUBCHEM_COMPOUND_CID>
126536

> <PUBCHEM_CONFORMER_RMSD>
0.6

> <PUBCHEM_CONFORMER_DIVERSEORDER>
1
13
29
22
27
16
21
24
15
4
12
25
6
14
10
18
28
7
9
26
23
19
11
8
20
17
3
5
2

> <PUBCHEM_MMFF94_PARTIAL_CHARGES>
15
1 -0.41
10 0.57
11 0.57
12 0.06
13 0.06
2 -0.65
23 0.18
24 0.5
3 -0.57
4 -0.57
5 -0.57
6 -0.42
7 0.36
8 0.23
9 0.66

> <PUBCHEM_EFFECTIVE_ROTOR_COUNT>
5

> <PUBCHEM_PHARMACOPHORE_FEATURES>
5
1 2 acceptor
1 3 acceptor
1 4 acceptor
1 5 acceptor
3 2 3 9 anion

> <PUBCHEM_HEAVY_ATOM_COUNT>
13

> <PUBCHEM_ATOM_DEF_STEREO_COUNT>
1

> <PUBCHEM_ATOM_UDEF_STEREO_COUNT>
0

> <PUBCHEM_BOND_DEF_STEREO_COUNT>
0

> <PUBCHEM_BOND_UDEF_STEREO_COUNT>
0

> <PUBCHEM_ISOTOPIC_ATOM_COUNT>
0

> <PUBCHEM_COMPONENT_COUNT>
1

> <PUBCHEM_CACTVS_TAUTO_COUNT>
1

> <PUBCHEM_CONFORMER_ID>
0001EE4800000001

> <PUBCHEM_MMFF94_ENERGY>
38.8501

> <PUBCHEM_FEATURE_SELFOVERLAP>
25.433

> <PUBCHEM_SHAPE_FINGERPRINT>
12423570 1 16228563327182436989
13024252 1 17177094472055190160
13898156 1 17605287167848071664
14128692 85 16950562241608415243
14344429 50 18115307916267724139
14817 1 12119042724613979984
15501101 241 17417543453166633319
15557651 10 17774705520235368986
16945 1 17313114054736681811
19837323 101 17325535065786757525
20233049 118 17967526844893116917
20711985 344 18193572077060859001
21930827 45 17909277879327131305
23211744 41 17479980165558303953
430814 3 13758354483524927381
5084963 1 18130793304351251914
535629 181 17392530654345452301
68250623 7 17472705100996664482
68419 9 17315937476021880900

> <PUBCHEM_SHAPE_MULTIPOLES>
242.93
2.97
2.13
1.92
0.18
2.06
-0.02
-0.9
-0.17
1.13
0.04
-1.32
-0.53
0.31

> <PUBCHEM_SHAPE_SELFOVERLAP>
463.623

> <PUBCHEM_SHAPE_VOLUME>
150.3

> <PUBCHEM_COORDINATE_TYPE>
2
5
10

$$$$
