6931238
  -OEChem-10241303113D

 32 33  0     1  0  0  0  0  0999 V2000
   -0.1850   -1.8444    1.8688 N   0  0  0  0  0  0  0  0  0  0  0  0
    0.2190   -1.7850   -1.8925 N   0  0  0  0  0  0  0  0  0  0  0  0
   -0.6322   -1.6972    0.4623 C   0  0  2  0  0  0  0  0  0  0  0  0
    0.6281   -1.6918   -0.4815 C   0  0  2  0  0  0  0  0  0  0  0  0
   -1.5325   -0.5202    0.2919 C   0  0  0  0  0  0  0  0  0  0  0  0
    1.5456   -0.4898   -0.2939 C   0  0  0  0  0  0  0  0  0  0  0  0
   -1.3272    0.6309    1.0524 C   0  0  0  0  0  0  0  0  0  0  0  0
    1.3193    0.6438   -1.0460 C   0  0  0  0  0  0  0  0  0  0  0  0
   -2.5799   -0.5708   -0.6279 C   0  0  0  0  0  0  0  0  0  0  0  0
    2.5734   -0.5738    0.6220 C   0  0  0  0  0  0  0  0  0  0  0  0
   -2.1693    1.7315    0.8931 C   0  0  0  0  0  0  0  0  0  0  0  0
    2.1594    1.7440   -0.8742 C   0  0  0  0  0  0  0  0  0  0  0  0
   -3.4219    0.5298   -0.7874 C   0  0  0  0  0  0  0  0  0  0  0  0
    3.4132    0.5265    0.7939 C   0  0  0  0  0  0  0  0  0  0  0  0
   -3.2166    1.6809   -0.0269 C   0  0  0  0  0  0  0  0  0  0  0  0
    3.2063    1.6855    0.0458 C   0  0  0  0  0  0  0  0  0  0  0  0
   -1.2115   -2.6062    0.2499 H   0  0  0  0  0  0  0  0  0  0  0  0
    1.2151   -2.5994   -0.2837 H   0  0  0  0  0  0  0  0  0  0  0  0
    0.4683   -1.1063    2.1220 H   0  0  0  0  0  0  0  0  0  0  0  0
    0.3389   -2.7147    1.9605 H   0  0  0  0  0  0  0  0  0  0  0  0
   -0.4597   -1.0640   -2.1276 H   0  0  0  0  0  0  0  0  0  0  0  0
   -0.2687   -2.6688   -2.0386 H   0  0  0  0  0  0  0  0  0  0  0  0
   -0.5166    0.7209    1.7689 H   0  0  0  0  0  0  0  0  0  0  0  0
    0.5073    0.7411   -1.7581 H   0  0  0  0  0  0  0  0  0  0  0  0
   -2.7567   -1.4619   -1.2243 H   0  0  0  0  0  0  0  0  0  0  0  0
    2.7475   -1.4731    1.2048 H   0  0  0  0  0  0  0  0  0  0  0  0
   -2.0074    2.6295    1.4823 H   0  0  0  0  0  0  0  0  0  0  0  0
    1.9958    2.6484   -1.4530 H   0  0  0  0  0  0  0  0  0  0  0  0
   -4.2379    0.4902   -1.5030 H   0  0  0  0  0  0  0  0  0  0  0  0
    4.2291    0.4805    1.5093 H   0  0  0  0  0  0  0  0  0  0  0  0
   -3.8717    2.5382   -0.1515 H   0  0  0  0  0  0  0  0  0  0  0  0
    3.8596    2.5426    0.1804 H   0  0  0  0  0  0  0  0  0  0  0  0
  1  3  1  0  0  0  0
  1 19  1  0  0  0  0
  1 20  1  0  0  0  0
  2  4  1  0  0  0  0
  2 21  1  0  0  0  0
  2 22  1  0  0  0  0
  3  4  1  0  0  0  0
  3  5  1  0  0  0  0
  3 17  1  0  0  0  0
  4  6  1  0  0  0  0
  4 18  1  0  0  0  0
  5  7  2  0  0  0  0
  5  9  1  0  0  0  0
  6  8  2  0  0  0  0
  6 10  1  0  0  0  0
  7 11  1  0  0  0  0
  7 23  1  0  0  0  0
  8 12  1  0  0  0  0
  8 24  1  0  0  0  0
  9 13  2  0  0  0  0
  9 25  1  0  0  0  0
 10 14  2  0  0  0  0
 10 26  1  0  0  0  0
 11 15  2  0  0  0  0
 11 27  1  0  0  0  0
 12 16  2  0  0  0  0
 12 28  1  0  0  0  0
 13 15  1  0  0  0  0
 13 29  1  0  0  0  0
 14 16  1  0  0  0  0
 14 30  1  0  0  0  0
 15 31  1  0  0  0  0
 16 32  1  0  0  0  0
M  END
> <PUBCHEM_COMPOUND_CID>
6931238

> <PUBCHEM_CONFORMER_RMSD>
0.6

> <PUBCHEM_CONFORMER_DIVERSEORDER>
2
5
3
4
1

> <PUBCHEM_MMFF94_PARTIAL_CHARGES>
30
1 -0.99
10 -0.15
11 -0.15
12 -0.15
13 -0.15
14 -0.15
15 -0.15
16 -0.15
19 0.36
2 -0.99
20 0.36
21 0.36
22 0.36
23 0.15
24 0.15
25 0.15
26 0.15
27 0.15
28 0.15
29 0.15
3 0.41
30 0.15
31 0.15
32 0.15
4 0.41
5 -0.14
6 -0.14
7 -0.15
8 -0.15
9 -0.15

> <PUBCHEM_EFFECTIVE_ROTOR_COUNT>
3

> <PUBCHEM_PHARMACOPHORE_FEATURES>
6
1 1 cation
1 1 donor
1 2 cation
1 2 donor
6 5 7 9 11 13 15 rings
6 6 8 10 12 14 16 rings

> <PUBCHEM_HEAVY_ATOM_COUNT>
16

> <PUBCHEM_ATOM_DEF_STEREO_COUNT>
2

> <PUBCHEM_ATOM_UDEF_STEREO_COUNT>
0

> <PUBCHEM_BOND_DEF_STEREO_COUNT>
0

> <PUBCHEM_BOND_UDEF_STEREO_COUNT>
0

> <PUBCHEM_ISOTOPIC_ATOM_COUNT>
0

> <PUBCHEM_COMPONENT_COUNT>
1

> <PUBCHEM_CACTVS_TAUTO_COUNT>
1

> <PUBCHEM_CONFORMER_ID>
0069C32600000002

> <PUBCHEM_MMFF94_ENERGY>
47.29

> <PUBCHEM_FEATURE_SELFOVERLAP>
30.446

> <PUBCHEM_SHAPE_FINGERPRINT>
11640471 11 18410570690911801441
12162725 195 18410852165893630949
12491281 212 18411984688951234984
12654903 92 17051626855352679887
13299463 15 16630530639170116995
13571099 52 18260545585176854279
13764800 53 18193013700983617201
14250199 8 18056769728015463389
15276787 5 15791726390909661800
15775835 57 18410573985157115649
15848702 105 18268130128186512207
15852999 172 18410013234226605635
16945 1 18411144653166644455
17357779 13 13827556723571150605
18186145 218 18336830792765152477
18981168 100 18050605977140487555
192875 21 18339345431513518749
19765921 60 18410569561862709345
20231682 184 18412258411332615487
20361792 2 11023820643921883585
20510252 161 18047480198811323842
21524375 3 18410854364911501317
21731516 1 9871470876571273621
21947302 44 18339934713905819311
230 275 18339371768236640238
23419403 2 15952436864540186123
23557571 272 17703787071968287543
2748010 2 18268453328459221494
305870 269 18041838402848941755
353137 74 18412539886736717345
4340502 62 17894918387335124465
465052 167 8718536268847751973
474 4 18335141951600610497
568465 68 14779260925825847520
6333272 397 18260269650802888129
7364860 26 17772193015759344327
74978 22 18041287659445679076
7832392 63 17551804616165870001
81228 2 17462883026398389371
83771 10 10519987084145278333
94968 8 10303515213404868237
9981440 41 18196361735913619320

> <PUBCHEM_SHAPE_MULTIPOLES>
319.31
5.49
2.21
1.37
0.04
0.12
-0.01
-3.23
0.01
0
0.02
0
0.42
-0.3

> <PUBCHEM_SHAPE_SELFOVERLAP>
680.29

> <PUBCHEM_SHAPE_VOLUME>
176.2

> <PUBCHEM_COORDINATE_TYPE>
2
5
10

$$$$
