54692151
  -OEChem-10241302573D

 53 56  0     1  0  0  0  0  0999 V2000
    4.4838    3.3326   -1.0068 Cl  0  0  0  0  0  0  0  0  0  0  0  0
   -2.3730   -1.4256    1.7938 O   0  0  0  0  0  0  0  0  0  0  0  0
    1.6159    1.4821   -1.7085 O   0  0  0  0  0  0  0  0  0  0  0  0
    0.0854   -2.3199    1.9123 O   0  0  0  0  0  0  0  0  0  0  0  0
   -4.5143    1.4818   -1.0980 O   0  0  0  0  0  0  0  0  0  0  0  0
   -1.4757   -2.1545   -1.0788 O   0  0  0  0  0  0  0  0  0  0  0  0
    2.3051   -2.5786    0.4188 O   0  0  0  0  0  0  0  0  0  0  0  0
    4.9325   -2.3365    0.4703 O   0  0  0  0  0  0  0  0  0  0  0  0
   -3.6016   -0.0858   -3.3962 O   0  0  0  0  0  0  0  0  0  0  0  0
   -3.8873    1.0469    1.8579 N   0  0  0  0  0  0  0  0  0  0  0  0
   -4.2085   -2.0519   -2.3485 N   0  0  0  0  0  0  0  0  0  0  0  0
   -1.5356    0.7358    1.1037 C   0  0  1  0  0  0  0  0  0  0  0  0
   -1.4687   -0.7845    0.8996 C   0  0  1  0  0  0  0  0  0  0  0  0
   -0.4518    1.4286    0.2529 C   0  0  0  0  0  0  0  0  0  0  0  0
    0.9711    0.9646    0.6168 C   0  0  1  0  0  0  0  0  0  0  0  0
   -2.9406    1.2981    0.7626 C   0  0  1  0  0  0  0  0  0  0  0  0
    1.0956   -0.5409    0.6967 C   0  0  0  0  0  0  0  0  0  0  0  0
   -0.0763   -1.3055    1.2342 C   0  0  0  0  0  0  0  0  0  0  0  0
    2.0175    1.5895   -0.3431 C   0  0  1  0  0  0  0  0  0  0  0  0
   -1.9451   -1.1789   -0.4927 C   0  0  0  0  0  0  0  0  0  0  0  0
   -3.4956    0.7325   -0.5289 C   0  0  0  0  0  0  0  0  0  0  0  0
   -3.0404   -0.3829   -1.1274 C   0  0  0  0  0  0  0  0  0  0  0  0
    3.3672    0.9243   -0.2512 C   0  0  0  0  0  0  0  0  0  0  0  0
    2.2313   -1.1994    0.3941 C   0  0  0  0  0  0  0  0  0  0  0  0
    3.4637   -0.4439    0.0707 C   0  0  0  0  0  0  0  0  0  0  0  0
   -5.2575    1.2497    1.3963 C   0  0  0  0  0  0  0  0  0  0  0  0
   -3.5894    1.9179    2.9911 C   0  0  0  0  0  0  0  0  0  0  0  0
    4.5244    1.6632   -0.5460 C   0  0  0  0  0  0  0  0  0  0  0  0
   -3.6358   -0.8057   -2.4048 C   0  0  0  0  0  0  0  0  0  0  0  0
    4.7396   -1.0297    0.1229 C   0  0  0  0  0  0  0  0  0  0  0  0
    5.7784    1.0605   -0.5006 C   0  0  0  0  0  0  0  0  0  0  0  0
    5.8857   -0.2839   -0.1632 C   0  0  0  0  0  0  0  0  0  0  0  0
   -1.2819    0.9533    2.1471 H   0  0  0  0  0  0  0  0  0  0  0  0
   -0.5105    2.5145    0.4038 H   0  0  0  0  0  0  0  0  0  0  0  0
   -0.6495    1.2576   -0.8116 H   0  0  0  0  0  0  0  0  0  0  0  0
    1.1928    1.3312    1.6307 H   0  0  0  0  0  0  0  0  0  0  0  0
   -2.8384    2.3843    0.6202 H   0  0  0  0  0  0  0  0  0  0  0  0
    2.0707    2.6555   -0.0993 H   0  0  0  0  0  0  0  0  0  0  0  0
   -2.3067   -2.3863    1.6563 H   0  0  0  0  0  0  0  0  0  0  0  0
   -2.6242    1.6994    3.4544 H   0  0  0  0  0  0  0  0  0  0  0  0
   -3.6137    2.9799    2.7198 H   0  0  0  0  0  0  0  0  0  0  0  0
   -4.3268    1.7652    3.7886 H   0  0  0  0  0  0  0  0  0  0  0  0
   -5.4493    2.2556    1.0067 H   0  0  0  0  0  0  0  0  0  0  0  0
   -5.6150    0.4657    0.7201 H   0  0  0  0  0  0  0  0  0  0  0  0
   -5.9331    1.1443    2.2570 H   0  0  0  0  0  0  0  0  0  0  0  0
    1.4549    0.5440   -1.9080 H   0  0  0  0  0  0  0  0  0  0  0  0
   -4.4148    2.4020   -0.8002 H   0  0  0  0  0  0  0  0  0  0  0  0
    1.4230   -2.9549    0.5674 H   0  0  0  0  0  0  0  0  0  0  0  0
    6.6815    1.6218   -0.7263 H   0  0  0  0  0  0  0  0  0  0  0  0
    6.8722   -0.7391   -0.1245 H   0  0  0  0  0  0  0  0  0  0  0  0
   -4.2182   -2.6139   -1.5029 H   0  0  0  0  0  0  0  0  0  0  0  0
   -4.6526   -2.4575   -3.1657 H   0  0  0  0  0  0  0  0  0  0  0  0
    5.8822   -2.5443    0.4502 H   0  0  0  0  0  0  0  0  0  0  0  0
  1 28  1  0  0  0  0
  2 13  1  0  0  0  0
  2 39  1  0  0  0  0
  3 19  1  0  0  0  0
  3 46  1  0  0  0  0
  4 18  2  0  0  0  0
  5 21  1  0  0  0  0
  5 47  1  0  0  0  0
  6 20  2  0  0  0  0
  7 24  1  0  0  0  0
  7 48  1  0  0  0  0
  8 30  1  0  0  0  0
  8 53  1  0  0  0  0
  9 29  2  0  0  0  0
 10 16  1  0  0  0  0
 10 26  1  0  0  0  0
 10 27  1  0  0  0  0
 11 29  1  0  0  0  0
 11 51  1  0  0  0  0
 11 52  1  0  0  0  0
 12 13  1  0  0  0  0
 12 14  1  0  0  0  0
 12 16  1  0  0  0  0
 12 33  1  0  0  0  0
 13 18  1  0  0  0  0
 13 20  1  0  0  0  0
 14 15  1  0  0  0  0
 14 34  1  0  0  0  0
 14 35  1  0  0  0  0
 15 17  1  0  0  0  0
 15 19  1  0  0  0  0
 15 36  1  0  0  0  0
 16 21  1  0  0  0  0
 16 37  1  0  0  0  0
 17 18  1  0  0  0  0
 17 24  2  0  0  0  0
 19 23  1  0  0  0  0
 19 38  1  0  0  0  0
 20 22  1  0  0  0  0
 21 22  2  0  0  0  0
 22 29  1  0  0  0  0
 23 25  1  0  0  0  0
 23 28  2  0  0  0  0
 24 25  1  0  0  0  0
 25 30  2  0  0  0  0
 26 43  1  0  0  0  0
 26 44  1  0  0  0  0
 26 45  1  0  0  0  0
 27 40  1  0  0  0  0
 27 41  1  0  0  0  0
 27 42  1  0  0  0  0
 28 31  1  0  0  0  0
 30 32  1  0  0  0  0
 31 32  2  0  0  0  0
 31 49  1  0  0  0  0
 32 50  1  0  0  0  0
M  END
> <PUBCHEM_COMPOUND_CID>
54692151

> <PUBCHEM_CONFORMER_RMSD>
0.8

> <PUBCHEM_CONFORMER_DIVERSEORDER>
1
4
3
2

> <PUBCHEM_MMFF94_PARTIAL_CHARGES>
39
1 -0.18
10 -0.81
11 -0.8
13 0.4
15 0.14
16 0.41
17 -0.12
18 0.49
19 0.42
2 -0.68
20 0.49
21 -0.06
22 0.03
23 -0.14
24 0.05
25 0.03
26 0.27
27 0.27
28 0.18
29 0.62
3 -0.68
30 0.08
31 -0.15
32 -0.15
39 0.4
4 -0.57
46 0.4
47 0.45
48 0.45
49 0.15
5 -0.53
50 0.15
51 0.37
52 0.37
53 0.45
6 -0.57
7 -0.53
8 -0.53
9 -0.57

> <PUBCHEM_EFFECTIVE_ROTOR_COUNT>
2.6

> <PUBCHEM_PHARMACOPHORE_FEATURES>
17
1 10 cation
1 11 donor
1 2 acceptor
1 2 donor
1 22 anion
1 3 acceptor
1 3 donor
1 4 acceptor
1 5 donor
1 6 acceptor
1 7 donor
1 8 donor
1 9 acceptor
6 12 13 14 15 17 18 rings
6 12 13 16 20 21 22 rings
6 15 17 19 23 24 25 rings
6 23 25 28 30 31 32 rings

> <PUBCHEM_HEAVY_ATOM_COUNT>
32

> <PUBCHEM_ATOM_DEF_STEREO_COUNT>
5

> <PUBCHEM_ATOM_UDEF_STEREO_COUNT>
0

> <PUBCHEM_BOND_DEF_STEREO_COUNT>
0

> <PUBCHEM_BOND_UDEF_STEREO_COUNT>
0

> <PUBCHEM_ISOTOPIC_ATOM_COUNT>
0

> <PUBCHEM_COMPONENT_COUNT>
1

> <PUBCHEM_CACTVS_TAUTO_COUNT>
132

> <PUBCHEM_CONFORMER_ID>
0342893700000001

> <PUBCHEM_MMFF94_ENERGY>
104.9939

> <PUBCHEM_FEATURE_SELFOVERLAP>
86.394

> <PUBCHEM_SHAPE_FINGERPRINT>
11135926 11 18187370935471930222
11578080 2 15576402307708911171
11796584 16 15985101903523310118
12236239 1 18271528606842708633
12403259 415 17312824857567047996
12616971 3 18412265008660870704
12714826 92 15985104158592110687
12788726 201 17560253413632127504
12969540 114 17530954783221055022
13140716 1 18188506769121060288
13224815 77 18336271223256889856
13782708 43 16660651700052266723
15183329 4 18411692184588276902
15420108 30 17187844221727130616
15484559 13 15883476989989718740
17349148 13 18335977606296857272
17980427 23 18342461473916973844
20511986 3 18130213879114604640
20775438 99 15900887258747577199
21033648 144 18042123318611492788
21033648 29 16950276325915134444
21033650 10 16127554586989350136
22122407 14 18045230340903774465
22182313 1 17167864153623640252
22393880 68 17275105054883405724
23559900 14 15769486577988941338
24771293 8 18342453773752872480
25147074 1 18272366447435092315
335352 9 18261685805237988614
3388396 114 17841989189379241361
34797466 226 15769773585253054176
350125 39 17970081121551279763
3610482 184 18058467528261154764
4015057 19 18334855060923438264
4169191 19 18116998991539233076
469060 322 16588875714731082091
474 4 18334862718738844152
497634 4 18334864965128351331
508706 21 16877941680416104046
5104073 3 18115316686781120496
633830 44 18340504321591227900
9981440 41 17549527957219068128

> <PUBCHEM_SHAPE_MULTIPOLES>
603.5
12.08
2.71
2.27
7.88
0.07
-0.74
3.02
-2.38
1.02
0.1
-3.97
-0.13
-3.5

> <PUBCHEM_SHAPE_SELFOVERLAP>
1328.629

> <PUBCHEM_SHAPE_VOLUME>
324.4

> <PUBCHEM_COORDINATE_TYPE>
2
5
10

$$$$
