151181
  -OEChem-10241303093D

 12 12  0     0  0  0  0  0  0999 V2000
   -2.2946    1.8393    0.0005 Br  0  0  0  0  0  0  0  0  0  0  0  0
   -2.1774   -1.2428   -0.0003 O   0  0  0  0  0  0  0  0  0  0  0  0
    2.7589    0.7556   -0.0001 O   0  0  0  0  0  0  0  0  0  0  0  0
   -0.8076    0.7088   -0.0003 C   0  0  0  0  0  0  0  0  0  0  0  0
   -1.0500   -0.7588   -0.0002 C   0  0  0  0  0  0  0  0  0  0  0  0
    0.4399    1.1916   -0.0002 C   0  0  0  0  0  0  0  0  0  0  0  0
    1.6198    0.3020   -0.0001 C   0  0  0  0  0  0  0  0  0  0  0  0
    0.1354   -1.6431    0.0003 C   0  0  0  0  0  0  0  0  0  0  0  0
    1.3755   -1.1526    0.0004 C   0  0  0  0  0  0  0  0  0  0  0  0
    0.6393    2.2587    0.0000 H   0  0  0  0  0  0  0  0  0  0  0  0
   -0.0378   -2.7137    0.0006 H   0  0  0  0  0  0  0  0  0  0  0  0
    2.2370   -1.8106    0.0008 H   0  0  0  0  0  0  0  0  0  0  0  0
  1  4  1  0  0  0  0
  2  5  2  0  0  0  0
  3  7  2  0  0  0  0
  4  5  1  0  0  0  0
  4  6  2  0  0  0  0
  5  8  1  0  0  0  0
  6  7  1  0  0  0  0
  6 10  1  0  0  0  0
  7  9  1  0  0  0  0
  8  9  2  0  0  0  0
  8 11  1  0  0  0  0
  9 12  1  0  0  0  0
M  END
> <PUBCHEM_COMPOUND_CID>
151181

> <PUBCHEM_CONFORMER_RMSD>
0.4

> <PUBCHEM_CONFORMER_DIVERSEORDER>
1

> <PUBCHEM_MMFF94_PARTIAL_CHARGES>
12
1 -0.11
10 0.15
11 0.15
12 0.15
2 -0.57
3 -0.57
4 0.12
5 0.54
6 -0.14
7 0.54
8 -0.14
9 -0.14

> <PUBCHEM_EFFECTIVE_ROTOR_COUNT>
0

> <PUBCHEM_PHARMACOPHORE_FEATURES>
4
1 1 hydrophobe
1 2 acceptor
1 3 acceptor
6 4 5 6 7 8 9 rings

> <PUBCHEM_HEAVY_ATOM_COUNT>
9

> <PUBCHEM_ATOM_DEF_STEREO_COUNT>
0

> <PUBCHEM_ATOM_UDEF_STEREO_COUNT>
0

> <PUBCHEM_BOND_DEF_STEREO_COUNT>
0

> <PUBCHEM_BOND_UDEF_STEREO_COUNT>
0

> <PUBCHEM_ISOTOPIC_ATOM_COUNT>
0

> <PUBCHEM_COMPONENT_COUNT>
1

> <PUBCHEM_CACTVS_TAUTO_COUNT>
1

> <PUBCHEM_CONFORMER_ID>
00024E8D00000001

> <PUBCHEM_MMFF94_ENERGY>
16.4298

> <PUBCHEM_FEATURE_SELFOVERLAP>
20.297

> <PUBCHEM_SHAPE_FINGERPRINT>
12423570 1 9757882391995422018
16945 1 18266741461848067110
18185500 45 17907015436547361998
193761 8 18338516322431327015
21040471 1 18338797793097090212
23552423 10 18261116240301890350
2748010 2 18411422769510402934
29004967 10 18190184670439922746
5084963 1 18130231578600647160

> <PUBCHEM_SHAPE_MULTIPOLES>
179.42
3.21
1.97
0.61
0.6
0.38
0
-1.3
0
0.3
0
0.05
-0.02
0

> <PUBCHEM_SHAPE_SELFOVERLAP>
359.683

> <PUBCHEM_SHAPE_VOLUME>
107.1

> <PUBCHEM_COORDINATE_TYPE>
2
5
10

$$$$
