5489415
  -OEChem-10241303013D

 31 32  0     0  0  0  0  0  0999 V2000
   -5.8251    0.4430   -0.0054 O   0  0  0  0  0  0  0  0  0  0  0  0
    0.0042   -1.9483   -0.6134 O   0  0  0  0  0  0  0  0  0  0  0  0
    0.4934   -0.0002    0.5408 N   0  0  0  0  0  0  0  0  0  0  0  0
    1.8376   -0.2882    0.5667 N   0  0  0  0  0  0  0  0  0  0  0  0
    4.7820   -0.6486    0.5294 N   0  0  0  0  0  0  0  0  0  0  0  0
   -1.7944   -0.5464   -0.0590 C   0  0  0  0  0  0  0  0  0  0  0  0
   -2.7599   -1.5511   -0.1187 C   0  0  0  0  0  0  0  0  0  0  0  0
   -2.1832    0.7909    0.0192 C   0  0  0  0  0  0  0  0  0  0  0  0
   -4.5034    0.1187   -0.0222 C   0  0  0  0  0  0  0  0  0  0  0  0
   -4.1145   -1.2187   -0.1005 C   0  0  0  0  0  0  0  0  0  0  0  0
   -3.5378    1.1235    0.0377 C   0  0  0  0  0  0  0  0  0  0  0  0
   -0.3820   -0.8929   -0.0784 C   0  0  0  0  0  0  0  0  0  0  0  0
    4.0806    0.4059   -0.0077 C   0  0  0  0  0  0  0  0  0  0  0  0
    2.7529    0.5484    0.0203 C   0  0  0  0  0  0  0  0  0  0  0  0
    5.0165    1.3259   -0.6028 C   0  0  0  0  0  0  0  0  0  0  0  0
    6.2632    0.8782   -0.4524 C   0  0  0  0  0  0  0  0  0  0  0  0
    6.0224   -0.3693    0.2706 C   0  0  0  0  0  0  0  0  0  0  0  0
   -6.1526    1.8293    0.0759 C   0  0  0  0  0  0  0  0  0  0  0  0
   -2.4778   -2.5992   -0.1756 H   0  0  0  0  0  0  0  0  0  0  0  0
   -1.4621    1.6030    0.0409 H   0  0  0  0  0  0  0  0  0  0  0  0
   -4.8622   -2.0057   -0.1465 H   0  0  0  0  0  0  0  0  0  0  0  0
   -3.7703    2.1815    0.0936 H   0  0  0  0  0  0  0  0  0  0  0  0
    0.2208    0.8349    1.0474 H   0  0  0  0  0  0  0  0  0  0  0  0
    2.1336   -1.1334    1.0400 H   0  0  0  0  0  0  0  0  0  0  0  0
    2.3005    1.4245   -0.4379 H   0  0  0  0  0  0  0  0  0  0  0  0
    4.7406    2.2443   -1.0980 H   0  0  0  0  0  0  0  0  0  0  0  0
    7.2003    1.2967   -0.7650 H   0  0  0  0  0  0  0  0  0  0  0  0
    6.8758   -1.0004    0.5566 H   0  0  0  0  0  0  0  0  0  0  0  0
   -7.2451    1.9036    0.0802 H   0  0  0  0  0  0  0  0  0  0  0  0
   -5.7985    2.2723    1.0129 H   0  0  0  0  0  0  0  0  0  0  0  0
   -5.7985    2.3786   -0.8030 H   0  0  0  0  0  0  0  0  0  0  0  0
  1  9  1  0  0  0  0
  1 18  1  0  0  0  0
  2 12  2  0  0  0  0
  3  4  1  0  0  0  0
  3 12  1  0  0  0  0
  3 23  1  0  0  0  0
  4 14  1  0  0  0  0
  4 24  1  0  0  0  0
  5 13  1  0  0  0  0
  5 17  2  0  0  0  0
  6  7  2  0  0  0  0
  6  8  1  0  0  0  0
  6 12  1  0  0  0  0
  7 10  1  0  0  0  0
  7 19  1  0  0  0  0
  8 11  2  0  0  0  0
  8 20  1  0  0  0  0
  9 10  2  0  0  0  0
  9 11  1  0  0  0  0
 10 21  1  0  0  0  0
 11 22  1  0  0  0  0
 13 14  2  0  0  0  0
 13 15  1  0  0  0  0
 14 25  1  0  0  0  0
 15 16  2  0  0  0  0
 15 26  1  0  0  0  0
 16 17  1  0  0  0  0
 16 27  1  0  0  0  0
 17 28  1  0  0  0  0
 18 29  1  0  0  0  0
 18 30  1  0  0  0  0
 18 31  1  0  0  0  0
M  END
> <PUBCHEM_COMPOUND_CID>
5489415

> <PUBCHEM_CONFORMER_RMSD>
0.6

> <PUBCHEM_CONFORMER_DIVERSEORDER>
2
13
50
65
49
71
44
1
66
23
28
5
11
47
15
52
21
76
9
3
8
6
14
67
32
7
20
75
18
22
42
4
77
56
24
19
73
10
54
74
57
38
64
33
16
46
17
59
35
45
12
36
26
72
29
41
39
51
70
48
34
25
43
53
62
31
30
37
68
60
69
63
27
61
40
58
55

> <PUBCHEM_MMFF94_PARTIAL_CHARGES>
28
1 -0.36
10 -0.15
11 -0.15
12 0.54
13 0.17
14 -0.05
15 -0.15
16 -0.14
17 0.38
18 0.28
19 0.15
2 -0.57
20 0.15
21 0.15
22 0.15
23 0.37
24 0.4
25 0.15
26 0.15
27 0.15
28 0.06
3 -0.41
4 -0.52
5 -0.62
6 0.09
7 -0.15
8 -0.15
9 0.08

> <PUBCHEM_EFFECTIVE_ROTOR_COUNT>
5

> <PUBCHEM_PHARMACOPHORE_FEATURES>
7
1 1 acceptor
1 2 acceptor
1 3 donor
1 4 donor
1 5 acceptor
5 5 13 15 16 17 rings
6 6 7 8 9 10 11 rings

> <PUBCHEM_HEAVY_ATOM_COUNT>
18

> <PUBCHEM_ATOM_DEF_STEREO_COUNT>
0

> <PUBCHEM_ATOM_UDEF_STEREO_COUNT>
0

> <PUBCHEM_BOND_DEF_STEREO_COUNT>
1

> <PUBCHEM_BOND_UDEF_STEREO_COUNT>
0

> <PUBCHEM_ISOTOPIC_ATOM_COUNT>
0

> <PUBCHEM_COMPONENT_COUNT>
1

> <PUBCHEM_CACTVS_TAUTO_COUNT>
4

> <PUBCHEM_CONFORMER_ID>
0053C30700000002

> <PUBCHEM_MMFF94_ENERGY>
56.4057

> <PUBCHEM_FEATURE_SELFOVERLAP>
37.055

> <PUBCHEM_SHAPE_FINGERPRINT>
100836 57 18409451383821780821
10354089 29 17167863067366205356
10411042 1 17834957852044562703
10730089 173 18411138026042857632
12107183 9 17685766926929499768
12236239 1 18187082871102621368
12516196 113 10953461833924518878
12616971 3 14201404918889029786
13167372 99 18261673684139101028
13533116 47 16630533882693625166
13668630 136 13830133896937227148
13685833 64 9079108973524605677
1420 363 12324238356551066392
14933364 13 18333735727704813512
15048467 5 18408040697914230613
15183329 4 18271814488851347566
15242439 84 17704070715718632610
15716309 27 10953458531247726889
15778101 99 18411985745977393969
17834072 8 17632858637548483904
19784866 170 18408323268376503707
200 152 10375876268541373526
20281389 69 18333729113392160001
20621476 66 18410296895626902897
20645477 56 18412544310484304423
21267235 1 18340207513993038831
212847 35 18410854378535141512
220451 1 16805040727137952218
2215653 11 17060344019992984950
22224240 67 15357699699674098057
23402539 116 18201996655153279589
23536379 177 18407759240143561762
23559900 14 17917422185561380576
29717793 49 18201725046644810660
300161 21 18272366512566145546
3004659 81 18411421688249698174
3545911 37 18411419501013838795
4073 2 17894918481576862074
4214541 1 18410292540582402922
42788 4 18335701663206362018
5104073 3 18113895022335437008
542803 24 17967811669601147586
54446538 1 18260546727696638500
59682541 35 18334868247068727305
59755656 215 18272093755893387998
59755656 520 17312820485237964139
7062679 6 18408890615981193589

> <PUBCHEM_SHAPE_MULTIPOLES>
343.75
16.91
1.58
0.69
9.29
0.08
0.01
-6.45
0.42
-1.46
0.17
0.27
0.01
-0.63

> <PUBCHEM_SHAPE_SELFOVERLAP>
733.868

> <PUBCHEM_SHAPE_VOLUME>
191.4

> <PUBCHEM_COORDINATE_TYPE>
2
5
10

$$$$
