3463933
  -OEChem-10241303083D

 32 33  0     0  0  0  0  0  0999 V2000
    3.3860   -1.6168    1.7119 Cl  0  0  0  0  0  0  0  0  0  0  0  0
    2.4120    3.5788   -1.5981 Cl  0  0  0  0  0  0  0  0  0  0  0  0
    1.4719   -1.6854   -0.8942 S   0  0  0  0  0  0  0  0  0  0  0  0
    2.4566   -2.7488   -0.8245 O   0  0  0  0  0  0  0  0  0  0  0  0
    0.8146   -1.3936   -2.1537 O   0  0  0  0  0  0  0  0  0  0  0  0
   -5.3876    0.5529   -0.9612 O   0  5  0  0  0  0  0  0  0  0  0  0
   -4.8781    1.7118    0.8323 O   0  0  0  0  0  0  0  0  0  0  0  0
    0.2984   -1.9283    0.3420 N   0  0  0  0  0  0  0  0  0  0  0  0
   -4.6037    0.8354   -0.0229 N   0  3  0  0  0  0  0  0  0  0  0  0
   -0.9408   -1.2196    0.2627 C   0  0  0  0  0  0  0  0  0  0  0  0
   -1.2666   -0.2413    1.2021 C   0  0  0  0  0  0  0  0  0  0  0  0
    2.2756   -0.2058   -0.3487 C   0  0  0  0  0  0  0  0  0  0  0  0
   -1.8291   -1.5173   -0.7707 C   0  0  0  0  0  0  0  0  0  0  0  0
   -2.4805    0.4394    1.1079 C   0  0  0  0  0  0  0  0  0  0  0  0
   -3.3686    0.1418    0.0743 C   0  0  0  0  0  0  0  0  0  0  0  0
    3.0913   -0.1989    0.7713 C   0  0  0  0  0  0  0  0  0  0  0  0
    2.0570    0.9478   -1.0866 C   0  0  0  0  0  0  0  0  0  0  0  0
   -3.0430   -0.8367   -0.8649 C   0  0  0  0  0  0  0  0  0  0  0  0
   -0.3325    0.0971    2.3180 C   0  0  0  0  0  0  0  0  0  0  0  0
    2.6698    2.1376   -0.6935 C   0  0  0  0  0  0  0  0  0  0  0  0
    3.7040    0.9909    1.1645 C   0  0  0  0  0  0  0  0  0  0  0  0
    3.4933    2.1591    0.4320 C   0  0  0  0  0  0  0  0  0  0  0  0
    0.6661   -2.0773    1.2895 H   0  0  0  0  0  0  0  0  0  0  0  0
   -1.6024   -2.2908   -1.4997 H   0  0  0  0  0  0  0  0  0  0  0  0
   -2.7158    1.2005    1.8483 H   0  0  0  0  0  0  0  0  0  0  0  0
    1.4156    0.9519   -1.9629 H   0  0  0  0  0  0  0  0  0  0  0  0
   -3.7121   -1.0981   -1.6807 H   0  0  0  0  0  0  0  0  0  0  0  0
   -0.8176    0.7359    3.0650 H   0  0  0  0  0  0  0  0  0  0  0  0
   -0.0025   -0.7997    2.8511 H   0  0  0  0  0  0  0  0  0  0  0  0
    0.5333    0.6451    1.9400 H   0  0  0  0  0  0  0  0  0  0  0  0
    4.3486    1.0253    2.0392 H   0  0  0  0  0  0  0  0  0  0  0  0
    3.9775    3.0790    0.7499 H   0  0  0  0  0  0  0  0  0  0  0  0
  1 16  1  0  0  0  0
  2 20  1  0  0  0  0
  3  4  2  0  0  0  0
  3  5  2  0  0  0  0
  3  8  1  0  0  0  0
  3 12  1  0  0  0  0
  6  9  1  0  0  0  0
  7  9  2  0  0  0  0
  8 10  1  0  0  0  0
  8 23  1  0  0  0  0
  9 15  1  0  0  0  0
 10 11  2  0  0  0  0
 10 13  1  0  0  0  0
 11 14  1  0  0  0  0
 11 19  1  0  0  0  0
 12 16  2  0  0  0  0
 12 17  1  0  0  0  0
 13 18  2  0  0  0  0
 13 24  1  0  0  0  0
 14 15  2  0  0  0  0
 14 25  1  0  0  0  0
 15 18  1  0  0  0  0
 16 21  1  0  0  0  0
 17 20  2  0  0  0  0
 17 26  1  0  0  0  0
 18 27  1  0  0  0  0
 19 28  1  0  0  0  0
 19 29  1  0  0  0  0
 19 30  1  0  0  0  0
 20 22  1  0  0  0  0
 21 22  2  0  0  0  0
 21 31  1  0  0  0  0
 22 32  1  0  0  0  0
M  CHG  2   6  -1   9   1
M  END
> <PUBCHEM_COMPOUND_CID>
3463933

> <PUBCHEM_CONFORMER_RMSD>
0.6

> <PUBCHEM_CONFORMER_DIVERSEORDER>
1
24
48
17
25
10
21
41
19
6
44
11
47
22
40
20
26
13
43
2
39
50
18
23
5
15
9
36
8
14
38
7
45
46
32
42
31
27
55
52
51
33
29
35
3
34
54
49
37
4
53
12
16
28
30

> <PUBCHEM_MMFF94_PARTIAL_CHARGES>
29
1 -0.18
10 0.2
11 -0.14
12 -0.01
13 -0.15
14 -0.15
15 0.13
16 0.18
17 -0.15
18 -0.15
19 0.14
2 -0.18
20 0.18
21 -0.15
22 -0.15
23 0.42
24 0.15
25 0.15
26 0.15
27 0.15
3 1.45
31 0.15
32 0.15
4 -0.65
5 -0.65
6 -0.52
7 -0.52
8 -0.76
9 0.91

> <PUBCHEM_EFFECTIVE_ROTOR_COUNT>
4

> <PUBCHEM_PHARMACOPHORE_FEATURES>
8
1 4 acceptor
1 5 acceptor
1 6 acceptor
1 6 anion
1 7 acceptor
1 8 donor
6 10 11 13 14 15 18 rings
6 12 16 17 20 21 22 rings

> <PUBCHEM_HEAVY_ATOM_COUNT>
22

> <PUBCHEM_ATOM_DEF_STEREO_COUNT>
0

> <PUBCHEM_ATOM_UDEF_STEREO_COUNT>
0

> <PUBCHEM_BOND_DEF_STEREO_COUNT>
0

> <PUBCHEM_BOND_UDEF_STEREO_COUNT>
0

> <PUBCHEM_ISOTOPIC_ATOM_COUNT>
0

> <PUBCHEM_COMPONENT_COUNT>
1

> <PUBCHEM_CACTVS_TAUTO_COUNT>
1

> <PUBCHEM_CONFORMER_ID>
0034DAFD00000001

> <PUBCHEM_MMFF94_ENERGY>
57.9897

> <PUBCHEM_FEATURE_SELFOVERLAP>
40.697

> <PUBCHEM_SHAPE_FINGERPRINT>
10498660 4 17560525117520815544
11140007 195 15792010026360300674
11370993 70 18201153342709445245
11640471 11 18268147754747943564
12166972 35 18272649021849369818
12403259 327 17095516327360609136
12633257 1 17168971439437920128
13134695 92 18040427760012156298
13583140 156 17822015315430404579
13965767 371 18339625816085306016
14251764 38 18187641354565349501
14251764 75 17900840536481696621
15163728 17 18119550939923636132
15295992 7 17530973475029555801
15848702 68 18113051658109622444
17859628 37 17967815002432836604
17980427 23 18128793348972875882
18186145 218 18261679168986287907
18981168 100 18050322359276120922
192875 21 18131632270684101136
19765921 60 18271525389817622075
20715895 44 18197209244773324041
21033648 29 16009290089877125333
21475661 188 17749661914263172285
21665062 11 18186516605587694692
21756936 100 17175479599456236876
21860390 5 18187648024432749500
21864079 5 18191879035159774028
22149856 69 17846511335819472011
22749437 52 18272092686261888713
23419403 2 17052989197784242330
23557571 272 16199585934381982791
23559900 14 17774724156136117174
4409770 3 16324579090864874486
474 4 18408040727678152475
5262128 65 15481850007068034848
57724786 102 17821734969851089012
960060 61 10952048948930143401
9981440 41 18198616834167852874

> <PUBCHEM_SHAPE_MULTIPOLES>
426.9
8.53
2.94
1.81
9.51
1.45
-0.23
4.58
-0.8
-3.08
1.15
-0.51
-0.25
-1.03

> <PUBCHEM_SHAPE_SELFOVERLAP>
884.4

> <PUBCHEM_SHAPE_VOLUME>
245.9

> <PUBCHEM_COORDINATE_TYPE>
2
5
10

$$$$
