130480
  -OEChem-10241303123D

 54 57  0     1  0  0  0  0  0999 V2000
   -1.5414    1.4650   -0.6357 O   0  0  0  0  0  0  0  0  0  0  0  0
    2.3306   -0.3123    0.9142 O   0  0  0  0  0  0  0  0  0  0  0  0
   -1.5134    4.1557    0.1385 O   0  0  0  0  0  0  0  0  0  0  0  0
    5.0050    1.2755   -0.9414 O   0  0  0  0  0  0  0  0  0  0  0  0
    1.6421    2.2193    0.2957 N   0  0  0  0  0  0  0  0  0  0  0  0
   -1.2989    1.8569    0.7240 C   0  0  1  0  0  0  0  0  0  0  0  0
    3.3832   -0.2298   -0.0588 C   0  0  2  0  0  0  0  0  0  0  0  0
   -0.5965    3.2089    0.6857 C   0  0  1  0  0  0  0  0  0  0  0  0
    3.8770    1.2119   -0.0692 C   0  0  2  0  0  0  0  0  0  0  0  0
   -2.6008    1.9434    1.5184 C   0  0  0  0  0  0  0  0  0  0  0  0
    2.8927   -0.6463   -1.4443 C   0  0  0  0  0  0  0  0  0  0  0  0
    0.6724    3.2014   -0.1698 C   0  0  0  0  0  0  0  0  0  0  0  0
    2.8208    2.2052   -0.5598 C   0  0  0  0  0  0  0  0  0  0  0  0
   -3.2420    0.5628    1.5777 C   0  0  0  0  0  0  0  0  0  0  0  0
    2.4621   -2.1070   -1.4022 C   0  0  0  0  0  0  0  0  0  0  0  0
   -3.2237   -0.0835    0.2223 C   0  0  0  0  0  0  0  0  0  0  0  0
    1.6178   -2.3712   -0.1886 C   0  0  0  0  0  0  0  0  0  0  0  0
   -2.3787    0.3900   -0.7901 C   0  0  0  0  0  0  0  0  0  0  0  0
    1.6083   -1.4778    0.8905 C   0  0  0  0  0  0  0  0  0  0  0  0
   -4.0400   -1.1930   -0.0337 C   0  0  0  0  0  0  0  0  0  0  0  0
    0.8461   -3.5382   -0.1151 C   0  0  0  0  0  0  0  0  0  0  0  0
   -2.3823   -0.2128   -2.0506 C   0  0  0  0  0  0  0  0  0  0  0  0
    0.8074   -1.7299    2.0074 C   0  0  0  0  0  0  0  0  0  0  0  0
   -4.0320   -1.8022   -1.2890 C   0  0  0  0  0  0  0  0  0  0  0  0
    0.0569   -3.7943    1.0067 C   0  0  0  0  0  0  0  0  0  0  0  0
   -3.2070   -1.3093   -2.2979 C   0  0  0  0  0  0  0  0  0  0  0  0
    0.0343   -2.8884    2.0651 C   0  0  0  0  0  0  0  0  0  0  0  0
   -0.6353    1.1123    1.1829 H   0  0  0  0  0  0  0  0  0  0  0  0
    4.2072   -0.8851    0.2565 H   0  0  0  0  0  0  0  0  0  0  0  0
   -0.3451    3.5350    1.7029 H   0  0  0  0  0  0  0  0  0  0  0  0
    4.2102    1.4948    0.9371 H   0  0  0  0  0  0  0  0  0  0  0  0
   -2.4272    2.3190    2.5327 H   0  0  0  0  0  0  0  0  0  0  0  0
   -3.3107    2.6198    1.0253 H   0  0  0  0  0  0  0  0  0  0  0  0
    2.0130   -0.0623   -1.7407 H   0  0  0  0  0  0  0  0  0  0  0  0
    3.6609   -0.5131   -2.2133 H   0  0  0  0  0  0  0  0  0  0  0  0
    0.4077    3.0163   -1.2189 H   0  0  0  0  0  0  0  0  0  0  0  0
    1.1093    4.2084   -0.1481 H   0  0  0  0  0  0  0  0  0  0  0  0
    3.2795    3.2037   -0.5639 H   0  0  0  0  0  0  0  0  0  0  0  0
    2.5571    2.0140   -1.6064 H   0  0  0  0  0  0  0  0  0  0  0  0
   -4.2700    0.6547    1.9464 H   0  0  0  0  0  0  0  0  0  0  0  0
   -2.6870   -0.0751    2.2764 H   0  0  0  0  0  0  0  0  0  0  0  0
    3.3463   -2.7545   -1.3613 H   0  0  0  0  0  0  0  0  0  0  0  0
    1.9071   -2.3490   -2.3159 H   0  0  0  0  0  0  0  0  0  0  0  0
    1.9108    2.4258    1.2571 H   0  0  0  0  0  0  0  0  0  0  0  0
   -2.1047    4.4448    0.8539 H   0  0  0  0  0  0  0  0  0  0  0  0
    5.3423    2.1873   -0.9188 H   0  0  0  0  0  0  0  0  0  0  0  0
   -4.6908   -1.5858    0.7435 H   0  0  0  0  0  0  0  0  0  0  0  0
    0.8511   -4.2516   -0.9355 H   0  0  0  0  0  0  0  0  0  0  0  0
   -1.7388    0.1625   -2.8419 H   0  0  0  0  0  0  0  0  0  0  0  0
    0.7843   -1.0288    2.8376 H   0  0  0  0  0  0  0  0  0  0  0  0
   -4.6711   -2.6592   -1.4802 H   0  0  0  0  0  0  0  0  0  0  0  0
   -0.5431   -4.6984    1.0529 H   0  0  0  0  0  0  0  0  0  0  0  0
   -3.2040   -1.7811   -3.2761 H   0  0  0  0  0  0  0  0  0  0  0  0
   -0.5850   -3.0851    2.9354 H   0  0  0  0  0  0  0  0  0  0  0  0
  1  6  1  0  0  0  0
  1 18  1  0  0  0  0
  2  7  1  0  0  0  0
  2 19  1  0  0  0  0
  3  8  1  0  0  0  0
  3 45  1  0  0  0  0
  4  9  1  0  0  0  0
  4 46  1  0  0  0  0
  5 12  1  0  0  0  0
  5 13  1  0  0  0  0
  5 44  1  0  0  0  0
  6  8  1  0  0  0  0
  6 10  1  0  0  0  0
  6 28  1  0  0  0  0
  7  9  1  0  0  0  0
  7 11  1  0  0  0  0
  7 29  1  0  0  0  0
  8 12  1  0  0  0  0
  8 30  1  0  0  0  0
  9 13  1  0  0  0  0
  9 31  1  0  0  0  0
 10 14  1  0  0  0  0
 10 32  1  0  0  0  0
 10 33  1  0  0  0  0
 11 15  1  0  0  0  0
 11 34  1  0  0  0  0
 11 35  1  0  0  0  0
 12 36  1  0  0  0  0
 12 37  1  0  0  0  0
 13 38  1  0  0  0  0
 13 39  1  0  0  0  0
 14 16  1  0  0  0  0
 14 40  1  0  0  0  0
 14 41  1  0  0  0  0
 15 17  1  0  0  0  0
 15 42  1  0  0  0  0
 15 43  1  0  0  0  0
 16 18  1  0  0  0  0
 16 20  2  0  0  0  0
 17 19  1  0  0  0  0
 17 21  2  0  0  0  0
 18 22  2  0  0  0  0
 19 23  2  0  0  0  0
 20 24  1  0  0  0  0
 20 47  1  0  0  0  0
 21 25  1  0  0  0  0
 21 48  1  0  0  0  0
 22 26  1  0  0  0  0
 22 49  1  0  0  0  0
 23 27  1  0  0  0  0
 23 50  1  0  0  0  0
 24 26  2  0  0  0  0
 24 51  1  0  0  0  0
 25 27  2  0  0  0  0
 25 52  1  0  0  0  0
 26 53  1  0  0  0  0
 27 54  1  0  0  0  0
M  END
> <PUBCHEM_COMPOUND_CID>
130480

> <PUBCHEM_CONFORMER_RMSD>
1

> <PUBCHEM_CONFORMER_DIVERSEORDER>
8
3
21
62
320
47
10
13
288
457
344
570
14
388
656
78
247
4
332
224
208
15
245
590
163
635
448
711
136
392
193
574
317
116
275
53
61
68
57
82
277
92
39
195
221
472
548
291
66
383
2
75
718
714
168
558
248
540
725
213
562
35
599
132
150
43
40
322
252
445
545
52
418
88
582
165
133
342
16
95
11
462
543
667
380
400
65
414
235
419
694
7
368
675
153
86
394
664
30
584
225
191
441
490
100
371
432
415
59
642
703
190
527
1
41
64
565
348
169
24
19
538
202
276
395
253
580
70
625
155
569
227
5
6
120
634
142
301
468
238
598
146
370
469
124
135
509
229
497
319
17
641
709
306
696
12
249
678
31
84
408
443
607
58
73
505
493
80
601
205
508
90
127
537
647
390
128
184
456
125
307
71
22
362
385
188
451
367
611
302
555
284
44
285
113
196
55
399
346
504
231
178
386
514
476
546
513
299
167
218
568
293
96
366
251
148
659
439
141
355
354
33
147
465
216
37
318
491
87
421
215
483
267
377
29
369
333
436
50
643
449
661
152
233
308
535
723
679
435
214
707
463
187
295
631
240
194
241

> <PUBCHEM_MMFF94_PARTIAL_CHARGES>
36
1 -0.36
12 0.27
13 0.27
14 0.14
15 0.14
16 -0.14
17 -0.14
18 0.08
19 0.08
2 -0.36
20 -0.15
21 -0.15
22 -0.15
23 -0.15
24 -0.15
25 -0.15
26 -0.15
27 -0.15
3 -0.68
4 -0.68
44 0.36
45 0.4
46 0.4
47 0.15
48 0.15
49 0.15
5 -0.9
50 0.15
51 0.15
52 0.15
53 0.15
54 0.15
6 0.28
7 0.28
8 0.28
9 0.28

> <PUBCHEM_EFFECTIVE_ROTOR_COUNT>
7.6

> <PUBCHEM_PHARMACOPHORE_FEATURES>
12
1 1 acceptor
1 2 acceptor
1 3 acceptor
1 3 donor
1 4 acceptor
1 4 donor
1 5 cation
1 5 donor
6 1 6 10 14 16 18 rings
6 16 18 20 22 24 26 rings
6 17 19 21 23 25 27 rings
6 2 7 11 15 17 19 rings

> <PUBCHEM_HEAVY_ATOM_COUNT>
27

> <PUBCHEM_ATOM_DEF_STEREO_COUNT>
0

> <PUBCHEM_ATOM_UDEF_STEREO_COUNT>
4

> <PUBCHEM_BOND_DEF_STEREO_COUNT>
0

> <PUBCHEM_BOND_UDEF_STEREO_COUNT>
0

> <PUBCHEM_ISOTOPIC_ATOM_COUNT>
0

> <PUBCHEM_COMPONENT_COUNT>
1

> <PUBCHEM_CACTVS_TAUTO_COUNT>
1

> <PUBCHEM_CONFORMER_ID>
0001FDB000000008

> <PUBCHEM_MMFF94_ENERGY>
69.1723

> <PUBCHEM_FEATURE_SELFOVERLAP>
60.96

> <PUBCHEM_SHAPE_FINGERPRINT>
12156800 1 11810615690049497815
12539773 59 17774178832981017489
12553582 1 18342166812989490749
12596599 1 18059306365448643339
128993 33 17914613852433300059
13122387 1 18410296873909089994
13149001 5 17976535340541964592
13402501 40 17974291220298979995
14279260 333 16964104613329051798
14787075 74 18265049322016585151
15664445 248 18127102330233352481
17492 54 18188765192412258774
17921350 177 17476370400169658870
19026451 147 18197187387310286639
19319366 153 16961574662573356218
19930381 70 18339089275653822171
20764821 26 17762347211455474288
20775438 99 16834001003967127758
238 59 18117819200572343999
35225 105 17040081407730139877
437795 51 18048028868943426591
4409770 3 15171616543371432305
463206 1 18268428130260616229
6287921 2 18201446835031296678

> <PUBCHEM_SHAPE_MULTIPOLES>
527.19
7.11
4.92
1.92
0.61
0.82
-0.09
0.53
-2.67
0.64
1.29
-1.06
-1.09
-1.39

> <PUBCHEM_SHAPE_SELFOVERLAP>
1131.579

> <PUBCHEM_SHAPE_VOLUME>
289.1

> <PUBCHEM_COORDINATE_TYPE>
2
5
10

$$$$
