2723853
  -OEChem-10241302563D

 13 12  0     0  0  0  0  0  0999 V2000
   -0.7628    1.9101   -0.0003 S   0  0  0  0  0  0  0  0  0  0  0  0
   -0.6328   -0.8149   -0.0028 N   0  0  0  0  0  0  0  0  0  0  0  0
    1.3851    0.3676    0.0018 N   0  0  0  0  0  0  0  0  0  0  0  0
    2.0717   -0.8330   -0.0001 N   0  0  0  0  0  0  0  0  0  0  0  0
    0.0037    0.4145   -0.0006 C   0  0  0  0  0  0  0  0  0  0  0  0
   -2.0649   -1.0443    0.0021 C   0  0  0  0  0  0  0  0  0  0  0  0
   -0.0383   -1.6382   -0.0048 H   0  0  0  0  0  0  0  0  0  0  0  0
   -2.2424   -2.1224    0.0015 H   0  0  0  0  0  0  0  0  0  0  0  0
   -2.5080   -0.5966   -0.8912 H   0  0  0  0  0  0  0  0  0  0  0  0
   -2.5017   -0.5986    0.8994 H   0  0  0  0  0  0  0  0  0  0  0  0
    1.9318    1.2229    0.0037 H   0  0  0  0  0  0  0  0  0  0  0  0
    2.6835   -0.8239    0.8149 H   0  0  0  0  0  0  0  0  0  0  0  0
    2.6858   -0.8200   -0.8133 H   0  0  0  0  0  0  0  0  0  0  0  0
  1  5  2  0  0  0  0
  2  5  1  0  0  0  0
  2  6  1  0  0  0  0
  2  7  1  0  0  0  0
  3  4  1  0  0  0  0
  3  5  1  0  0  0  0
  3 11  1  0  0  0  0
  4 12  1  0  0  0  0
  4 13  1  0  0  0  0
  6  8  1  0  0  0  0
  6  9  1  0  0  0  0
  6 10  1  0  0  0  0
M  END
> <PUBCHEM_COMPOUND_CID>
2723853

> <PUBCHEM_CONFORMER_RMSD>
0.4

> <PUBCHEM_CONFORMER_DIVERSEORDER>
1
4
8
5
7
6
9
3
2

> <PUBCHEM_MMFF94_PARTIAL_CHARGES>
10
1 -0.38
11 0.37
12 0.36
13 0.36
2 -0.73
3 -0.42
4 -0.73
5 0.5
6 0.3
7 0.37

> <PUBCHEM_EFFECTIVE_ROTOR_COUNT>
2

> <PUBCHEM_PHARMACOPHORE_FEATURES>
4
1 1 acceptor
1 2 donor
1 3 donor
1 4 donor

> <PUBCHEM_HEAVY_ATOM_COUNT>
6

> <PUBCHEM_ATOM_DEF_STEREO_COUNT>
0

> <PUBCHEM_ATOM_UDEF_STEREO_COUNT>
0

> <PUBCHEM_BOND_DEF_STEREO_COUNT>
0

> <PUBCHEM_BOND_UDEF_STEREO_COUNT>
0

> <PUBCHEM_ISOTOPIC_ATOM_COUNT>
0

> <PUBCHEM_COMPONENT_COUNT>
1

> <PUBCHEM_CACTVS_TAUTO_COUNT>
3

> <PUBCHEM_CONFORMER_ID>
0029900D00000001

> <PUBCHEM_MMFF94_ENERGY>
8.3081

> <PUBCHEM_FEATURE_SELFOVERLAP>
21.846

> <PUBCHEM_SHAPE_FINGERPRINT>
139733 1 9295022257560822403
16714656 1 18337678486123302517
20096714 4 17833831569088240120
21040471 1 17834395622805980516
23552449 1 18340482270881301824
29004967 10 18191869139486162355
5943 1 15676544572246045301

> <PUBCHEM_SHAPE_MULTIPOLES>
112.38
2.39
1.81
0.59
0.51
0.88
0
-1.19
0
-0.72
0
-0.06
0.05
0

> <PUBCHEM_SHAPE_SELFOVERLAP>
189.015

> <PUBCHEM_SHAPE_VOLUME>
77.7

> <PUBCHEM_COORDINATE_TYPE>
2
5
10

$$$$
