177238
  -OEChem-10241303063D

 54 57  0     0  0  0  0  0  0999 V2000
    8.2941   -0.6730    1.2373 O   0  0  0  0  0  0  0  0  0  0  0  0
    8.5672   -0.4120   -1.0041 O   0  0  0  0  0  0  0  0  0  0  0  0
   -4.4740    2.5506   -0.0376 C   0  0  0  0  0  0  0  0  0  0  0  0
   -5.2533    1.5459    0.8498 C   0  0  0  0  0  0  0  0  0  0  0  0
   -2.9805    2.2075   -0.0181 C   0  0  0  0  0  0  0  0  0  0  0  0
   -2.5722    0.8601    0.1400 C   0  0  0  0  0  0  0  0  0  0  0  0
   -4.7898    3.9643    0.4973 C   0  0  0  0  0  0  0  0  0  0  0  0
   -4.9698    2.4659   -1.4982 C   0  0  0  0  0  0  0  0  0  0  0  0
   -3.5746   -0.2268    0.3109 C   0  0  0  0  0  0  0  0  0  0  0  0
   -4.8281    0.1221    0.6577 C   0  0  0  0  0  0  0  0  0  0  0  0
   -1.9973    3.1952   -0.2108 C   0  0  0  0  0  0  0  0  0  0  0  0
   -1.1997    0.5524    0.1292 C   0  0  0  0  0  0  0  0  0  0  0  0
   -3.3166   -1.6726    0.1341 C   0  0  0  0  0  0  0  0  0  0  0  0
   -0.6411    2.8696   -0.2197 C   0  0  0  0  0  0  0  0  0  0  0  0
   -0.2428    1.5507   -0.0462 C   0  0  0  0  0  0  0  0  0  0  0  0
   -2.8995   -2.4388    1.2190 C   0  0  0  0  0  0  0  0  0  0  0  0
   -3.4924   -2.2592   -1.1162 C   0  0  0  0  0  0  0  0  0  0  0  0
   -2.6562   -3.8021    1.0522 C   0  0  0  0  0  0  0  0  0  0  0  0
   -3.2492   -3.6225   -1.2829 C   0  0  0  0  0  0  0  0  0  0  0  0
   -2.8310   -4.3940   -0.1987 C   0  0  0  0  0  0  0  0  0  0  0  0
    1.1472    1.2190   -0.0397 C   0  0  0  0  0  0  0  0  0  0  0  0
   -2.5716   -5.8518   -0.3763 C   0  0  0  0  0  0  0  0  0  0  0  0
    2.3171    0.9397   -0.0343 C   0  0  0  0  0  0  0  0  0  0  0  0
    3.7084    0.6077   -0.0282 C   0  0  0  0  0  0  0  0  0  0  0  0
    4.3402    0.2803    1.1706 C   0  0  0  0  0  0  0  0  0  0  0  0
    4.4298    0.6099   -1.2212 C   0  0  0  0  0  0  0  0  0  0  0  0
    5.6964   -0.0457    1.1764 C   0  0  0  0  0  0  0  0  0  0  0  0
    5.7861    0.2838   -1.2152 C   0  0  0  0  0  0  0  0  0  0  0  0
    6.4194   -0.0439   -0.0165 C   0  0  0  0  0  0  0  0  0  0  0  0
    7.8337   -0.3823   -0.0104 C   0  0  0  0  0  0  0  0  0  0  0  0
   -6.3276    1.6258    0.6393 H   0  0  0  0  0  0  0  0  0  0  0  0
   -5.1275    1.7871    1.9140 H   0  0  0  0  0  0  0  0  0  0  0  0
   -4.3589    4.1188    1.4934 H   0  0  0  0  0  0  0  0  0  0  0  0
   -4.4040    4.7511   -0.1601 H   0  0  0  0  0  0  0  0  0  0  0  0
   -5.8724    4.1209    0.5746 H   0  0  0  0  0  0  0  0  0  0  0  0
   -4.8043    1.4743   -1.9347 H   0  0  0  0  0  0  0  0  0  0  0  0
   -6.0426    2.6810   -1.5633 H   0  0  0  0  0  0  0  0  0  0  0  0
   -4.4487    3.1895   -2.1365 H   0  0  0  0  0  0  0  0  0  0  0  0
   -5.5909   -0.6356    0.8238 H   0  0  0  0  0  0  0  0  0  0  0  0
   -2.2690    4.2350   -0.3662 H   0  0  0  0  0  0  0  0  0  0  0  0
   -0.8641   -0.4746    0.2599 H   0  0  0  0  0  0  0  0  0  0  0  0
    0.0912    3.6603   -0.3653 H   0  0  0  0  0  0  0  0  0  0  0  0
   -2.7577   -1.9912    2.1996 H   0  0  0  0  0  0  0  0  0  0  0  0
   -3.8165   -1.6700   -1.9705 H   0  0  0  0  0  0  0  0  0  0  0  0
   -2.3289   -4.3923    1.9041 H   0  0  0  0  0  0  0  0  0  0  0  0
   -3.3871   -4.0717   -2.2629 H   0  0  0  0  0  0  0  0  0  0  0  0
   -3.2091   -6.2741   -1.1607 H   0  0  0  0  0  0  0  0  0  0  0  0
   -1.5245   -6.0165   -0.6490 H   0  0  0  0  0  0  0  0  0  0  0  0
   -2.7863   -6.4062    0.5437 H   0  0  0  0  0  0  0  0  0  0  0  0
    3.7894    0.2742    2.1082 H   0  0  0  0  0  0  0  0  0  0  0  0
    3.9498    0.8630   -2.1635 H   0  0  0  0  0  0  0  0  0  0  0  0
    6.1498   -0.2946    2.1317 H   0  0  0  0  0  0  0  0  0  0  0  0
    6.3315    0.2912   -2.1553 H   0  0  0  0  0  0  0  0  0  0  0  0
    9.2487   -0.8991    1.2306 H   0  0  0  0  0  0  0  0  0  0  0  0
  1 30  1  0  0  0  0
  1 54  1  0  0  0  0
  2 30  2  0  0  0  0
  3  4  1  0  0  0  0
  3  5  1  0  0  0  0
  3  7  1  0  0  0  0
  3  8  1  0  0  0  0
  4 10  1  0  0  0  0
  4 31  1  0  0  0  0
  4 32  1  0  0  0  0
  5  6  2  0  0  0  0
  5 11  1  0  0  0  0
  6  9  1  0  0  0  0
  6 12  1  0  0  0  0
  7 33  1  0  0  0  0
  7 34  1  0  0  0  0
  7 35  1  0  0  0  0
  8 36  1  0  0  0  0
  8 37  1  0  0  0  0
  8 38  1  0  0  0  0
  9 10  2  0  0  0  0
  9 13  1  0  0  0  0
 10 39  1  0  0  0  0
 11 14  2  0  0  0  0
 11 40  1  0  0  0  0
 12 15  2  0  0  0  0
 12 41  1  0  0  0  0
 13 16  2  0  0  0  0
 13 17  1  0  0  0  0
 14 15  1  0  0  0  0
 14 42  1  0  0  0  0
 15 21  1  0  0  0  0
 16 18  1  0  0  0  0
 16 43  1  0  0  0  0
 17 19  2  0  0  0  0
 17 44  1  0  0  0  0
 18 20  2  0  0  0  0
 18 45  1  0  0  0  0
 19 20  1  0  0  0  0
 19 46  1  0  0  0  0
 20 22  1  0  0  0  0
 21 23  3  0  0  0  0
 22 47  1  0  0  0  0
 22 48  1  0  0  0  0
 22 49  1  0  0  0  0
 23 24  1  0  0  0  0
 24 25  2  0  0  0  0
 24 26  1  0  0  0  0
 25 27  1  0  0  0  0
 25 50  1  0  0  0  0
 26 28  2  0  0  0  0
 26 51  1  0  0  0  0
 27 29  2  0  0  0  0
 27 52  1  0  0  0  0
 28 29  1  0  0  0  0
 28 53  1  0  0  0  0
 29 30  1  0  0  0  0
M  END
> <PUBCHEM_COMPOUND_CID>
177238

> <PUBCHEM_CONFORMER_RMSD>
0.8

> <PUBCHEM_CONFORMER_DIVERSEORDER>
1
2

> <PUBCHEM_MMFF94_PARTIAL_CHARGES>
41
1 -0.65
10 -0.29
11 -0.15
12 -0.15
13 0.03
14 -0.15
15 0.07
16 -0.15
17 -0.15
18 -0.15
19 -0.15
2 -0.57
20 -0.14
21 -0.07
22 0.14
23 -0.07
24 0.07
25 -0.15
26 -0.15
27 -0.15
28 -0.15
29 0.09
3 0.14
30 0.63
39 0.15
4 0.14
40 0.15
41 0.15
42 0.15
43 0.15
44 0.15
45 0.15
46 0.15
5 -0.14
50 0.15
51 0.15
52 0.15
53 0.15
54 0.5
6 0.03
9 -0.06

> <PUBCHEM_EFFECTIVE_ROTOR_COUNT>
2.4

> <PUBCHEM_PHARMACOPHORE_FEATURES>
8
1 1 acceptor
1 2 acceptor
3 1 2 30 anion
3 3 7 8 hydrophobe
6 13 16 17 18 19 20 rings
6 24 25 26 27 28 29 rings
6 3 4 5 6 9 10 rings
6 5 6 11 12 14 15 rings

> <PUBCHEM_HEAVY_ATOM_COUNT>
30

> <PUBCHEM_ATOM_DEF_STEREO_COUNT>
0

> <PUBCHEM_ATOM_UDEF_STEREO_COUNT>
0

> <PUBCHEM_BOND_DEF_STEREO_COUNT>
0

> <PUBCHEM_BOND_UDEF_STEREO_COUNT>
0

> <PUBCHEM_ISOTOPIC_ATOM_COUNT>
0

> <PUBCHEM_COMPONENT_COUNT>
1

> <PUBCHEM_CACTVS_TAUTO_COUNT>
1

> <PUBCHEM_CONFORMER_ID>
0002B45600000001

> <PUBCHEM_MMFF94_ENERGY>
91.3374

> <PUBCHEM_FEATURE_SELFOVERLAP>
40.677

> <PUBCHEM_SHAPE_FINGERPRINT>
10050765 1 18338799052066580420
10290309 65 18049158874015499541
10319688 45 18409446998771617156
10411042 1 18122345950591106163
10483366 6 18339344371880489087
10622 236 18116433845891444894
10940486 97 18333453165906770381
11227688 84 17180268001942046955
11524674 6 17703788102443700669
11796584 16 18412547583681887658
12236239 1 17604155848352378284
12643181 29 18411696561355149352
13690498 29 18263088875767687373
13782708 43 18060137696020794730
14444916 359 18196108663502882425
14659021 117 18121490512673367499
14844126 61 18336550503516070027
14866123 147 18339646745809281051
15021287 119 17022910033992101028
15131766 46 15649336461501000677
15183329 4 15864068767756182176
15230672 131 18266177232744069090
15250474 111 18261385681086335850
15320294 125 18187086143751968647
15320295 44 18188505691258901380
15348495 7 18130782400089125664
15439362 3 17832421996031270733
15467298 65 18114452397955247122
15484559 13 14501951715136149340
15538507 19 17977943820230191122
15803439 3 17827040010929177679
17492 89 17907578378259203155
19311894 1 18049159174748587554
19611394 137 18131068247669708304
20771845 165 17536305943638122965
20771845 38 18339931429174106795
20982279 24 16414099417561446486
21133410 171 17401992072278879802
21133410 52 15680533158551235948
21133665 82 18337111146533774759
21772528 278 16588318159161301866
23516275 137 17900559890770700586
23559900 14 18412257367904469896
23569914 152 17552608742263091967
23569943 247 14547631093949551660
249057 3 18333732399042563989
335507 130 18188219805503530196
3383291 50 18412828002075882475
3610482 184 17895777182598139918
397830 11 18059000813914225432
4015057 19 17059759105514288377
4017518 198 18339638937226246007
4073 2 18413107265170614496
437795 96 18201733820710206958
44062 13 18411985801031195017
44802255 64 17385715847607738061
4616759 239 17988635273475988800
484985 159 18337100267920256415
497634 4 15719683151248374097
49967989 163 18336557109450487086
5080951 261 18187908582770957412
508706 21 18271815660718693199
5364581 5 18056466473350039248
559249 180 18260830375747426753
563151 74 15625127303080847655
58902169 19 17676496034453633724
613672 6 17691665102470185539
6441014 3 17979073009201241498
6669772 16 18197501727808990279
6691757 9 18341335509342853257
68570916 9 18334576893615033284
9896288 288 18338244778310256721

> <PUBCHEM_SHAPE_MULTIPOLES>
605.65
19.12
5.92
1.19
54.47
8.24
0.09
-0.65
-0.29
-14.41
0.67
0.31
0.31
-0.5

> <PUBCHEM_SHAPE_SELFOVERLAP>
1331.868

> <PUBCHEM_SHAPE_VOLUME>
326.6

> <PUBCHEM_COORDINATE_TYPE>
2
5
10

$$$$
