161472
  -OEChem-10241302583D

 29 31  0     1  0  0  0  0  0999 V2000
    3.3029   -2.3931    0.8719 O   0  0  0  0  0  0  0  0  0  0  0  0
    3.6428   -1.2310   -1.0594 O   0  0  0  0  0  0  0  0  0  0  0  0
    3.6633    2.0075   -0.7657 O   0  0  0  0  0  0  0  0  0  0  0  0
    2.0919    0.8508   -0.0177 N   0  0  0  0  0  0  0  0  0  0  0  0
   -1.5435    1.7339    0.2440 N   0  0  0  0  0  0  0  0  0  0  0  0
    3.2828    1.3617    0.2158 N   0  0  0  0  0  0  0  0  0  0  0  0
   -0.5448   -0.2452    0.0522 C   0  0  0  0  0  0  0  0  0  0  0  0
    0.5947   -1.1950   -0.0248 C   0  0  0  0  0  0  0  0  0  0  0  0
    1.9087   -0.5387    0.4817 C   0  0  1  0  0  0  0  0  0  0  0  0
   -0.3338    1.1026    0.2237 C   0  0  0  0  0  0  0  0  0  0  0  0
    0.9890    1.7579    0.3967 C   0  0  0  0  0  0  0  0  0  0  0  0
   -1.9474   -0.4512   -0.0464 C   0  0  0  0  0  0  0  0  0  0  0  0
   -2.5508    0.8058    0.0780 C   0  0  0  0  0  0  0  0  0  0  0  0
    3.0396   -1.3978   -0.0098 C   0  0  0  0  0  0  0  0  0  0  0  0
   -2.7687   -1.5815   -0.2315 C   0  0  0  0  0  0  0  0  0  0  0  0
   -3.9383    0.9832    0.0287 C   0  0  0  0  0  0  0  0  0  0  0  0
   -4.1574   -1.4165   -0.2829 C   0  0  0  0  0  0  0  0  0  0  0  0
   -4.7310   -0.1533   -0.1544 C   0  0  0  0  0  0  0  0  0  0  0  0
    0.3800   -2.0900    0.5718 H   0  0  0  0  0  0  0  0  0  0  0  0
    0.7048   -1.5235   -1.0669 H   0  0  0  0  0  0  0  0  0  0  0  0
    1.9216   -0.5217    1.5814 H   0  0  0  0  0  0  0  0  0  0  0  0
    1.0180    2.6765   -0.2038 H   0  0  0  0  0  0  0  0  0  0  0  0
    1.1012    2.0416    1.4524 H   0  0  0  0  0  0  0  0  0  0  0  0
   -1.6851    2.7275    0.3640 H   0  0  0  0  0  0  0  0  0  0  0  0
   -2.3361   -2.5726   -0.3334 H   0  0  0  0  0  0  0  0  0  0  0  0
   -4.3868    1.9660    0.1277 H   0  0  0  0  0  0  0  0  0  0  0  0
   -4.7949   -2.2853   -0.4250 H   0  0  0  0  0  0  0  0  0  0  0  0
   -5.8121   -0.0485   -0.1975 H   0  0  0  0  0  0  0  0  0  0  0  0
    4.0381   -2.9668    0.5679 H   0  0  0  0  0  0  0  0  0  0  0  0
  1 14  1  0  0  0  0
  1 29  1  0  0  0  0
  2 14  2  0  0  0  0
  3  6  2  0  0  0  0
  4  6  1  0  0  0  0
  4  9  1  0  0  0  0
  4 11  1  0  0  0  0
  5 10  1  0  0  0  0
  5 13  1  0  0  0  0
  5 24  1  0  0  0  0
  7  8  1  0  0  0  0
  7 10  2  0  0  0  0
  7 12  1  0  0  0  0
  8  9  1  0  0  0  0
  8 19  1  0  0  0  0
  8 20  1  0  0  0  0
  9 14  1  0  0  0  0
  9 21  1  0  0  0  0
 10 11  1  0  0  0  0
 11 22  1  0  0  0  0
 11 23  1  0  0  0  0
 12 13  1  0  0  0  0
 12 15  2  0  0  0  0
 13 16  2  0  0  0  0
 15 17  1  0  0  0  0
 15 25  1  0  0  0  0
 16 18  1  0  0  0  0
 16 26  1  0  0  0  0
 17 18  2  0  0  0  0
 17 27  1  0  0  0  0
 18 28  1  0  0  0  0
M  END
> <PUBCHEM_COMPOUND_CID>
161472

> <PUBCHEM_CONFORMER_RMSD>
0.6

> <PUBCHEM_CONFORMER_DIVERSEORDER>
1
8
7
4
2
3
5
6
9

> <PUBCHEM_MMFF94_PARTIAL_CHARGES>
23
1 -0.65
10 -0.33
11 0.45
13 -0.15
14 0.66
15 -0.15
16 -0.15
17 -0.15
18 -0.15
2 -0.57
24 0.27
25 0.15
26 0.15
27 0.15
28 0.15
29 0.5
3 -0.16
4 -0.36
5 0.03
6 -0.01
7 -0.18
8 0.18
9 0.33

> <PUBCHEM_EFFECTIVE_ROTOR_COUNT>
2.8

> <PUBCHEM_PHARMACOPHORE_FEATURES>
8
1 1 acceptor
1 2 acceptor
1 5 cation
1 5 donor
3 1 2 14 anion
5 5 7 10 12 13 rings
6 12 13 15 16 17 18 rings
6 4 7 8 9 10 11 rings

> <PUBCHEM_HEAVY_ATOM_COUNT>
18

> <PUBCHEM_ATOM_DEF_STEREO_COUNT>
0

> <PUBCHEM_ATOM_UDEF_STEREO_COUNT>
1

> <PUBCHEM_BOND_DEF_STEREO_COUNT>
0

> <PUBCHEM_BOND_UDEF_STEREO_COUNT>
0

> <PUBCHEM_ISOTOPIC_ATOM_COUNT>
0

> <PUBCHEM_COMPONENT_COUNT>
1

> <PUBCHEM_CACTVS_TAUTO_COUNT>
1

> <PUBCHEM_CONFORMER_ID>
000276C000000001

> <PUBCHEM_MMFF94_ENERGY>
42.7653

> <PUBCHEM_FEATURE_SELFOVERLAP>
40.826

> <PUBCHEM_SHAPE_FINGERPRINT>
10062212 137 18271799099883507191
10616163 171 18197217164302595399
10967382 1 18339921627293280217
11132069 177 18341323436004732587
11471102 20 18411414029552609845
11543360 7 16443357480745064479
11578080 2 17677592203826973588
11769659 78 18412257333448824259
12032990 46 18412827984516003611
13140716 1 18341609261498497192
13296908 3 18410290315794754827
13760787 5 18411698781979712029
14576447 43 18056186119438419991
15196674 1 18411981369242149955
15442244 35 18339642231044006065
15536298 74 18342455949966051528
16945 1 18195808457714974865
17492 89 18411136931064067659
17804303 29 18343301431822044243
18186145 218 17894906322017790911
19422 9 18341896277262568209
200 152 17917982894090057359
20281475 54 18413385449738035785
20645477 70 18413952784426175407
21267235 1 18412271614278724715
21501502 16 18412546496395947801
21501925 9 18339912749722623066
21634736 98 18410295800425826262
221490 88 18408891762431441635
2255824 54 18261112963479272338
2334 1 18412260666100709970
23463225 33 18411979139642498387
23559900 14 18341043017600792482
2748010 2 18412255142762367117
335352 9 18267864974206741701
34934 24 18271518822622247981
474 4 17750521848156478220
5104073 3 18413108360065424979
57096353 35 18339921635946642173
633830 44 17603865589992941321
67856867 119 18336538400377337816
7364860 26 18272367607445520824
77779 3 18410856568646475063
8809292 202 18407762530168034539
9709674 26 18337392754929148555

> <PUBCHEM_SHAPE_MULTIPOLES>
337.88
8.32
2.21
0.73
2.1
0.04
-0.03
1.52
-0.95
-1.46
0.07
-0.37
0.08
-0.5

> <PUBCHEM_SHAPE_SELFOVERLAP>
746.611

> <PUBCHEM_SHAPE_VOLUME>
181.3

> <PUBCHEM_COORDINATE_TYPE>
2
5
10

$$$$
