156419
  -OEChem-10241302473D

 48 50  0     1  0  0  0  0  0999 V2000
    7.1203    1.2177   -0.1812 F   0  0  0  0  0  0  0  0  0  0  0  0
    5.4236    1.9610   -1.3093 F   0  0  0  0  0  0  0  0  0  0  0  0
    5.5951    2.4075    0.8121 F   0  0  0  0  0  0  0  0  0  0  0  0
   -1.4229   -1.3901   -1.7050 N   0  0  0  0  0  0  0  0  0  0  0  0
   -2.8883   -1.3832   -1.5652 C   0  0  1  0  0  0  0  0  0  0  0  0
   -0.7915   -1.1400   -0.4226 C   0  0  0  0  0  0  0  0  0  0  0  0
   -3.3992   -0.0748   -1.0455 C   0  0  0  0  0  0  0  0  0  0  0  0
    0.7294   -1.1591   -0.5672 C   0  0  0  0  0  0  0  0  0  0  0  0
    1.4139   -0.8757    0.7725 C   0  0  0  0  0  0  0  0  0  0  0  0
   -4.0893    0.0238    0.1737 C   0  0  0  0  0  0  0  0  0  0  0  0
   -3.5220   -1.7650   -2.9127 C   0  0  0  0  0  0  0  0  0  0  0  0
   -4.5465    1.2902    0.6095 C   0  0  0  0  0  0  0  0  0  0  0  0
    2.9156   -0.9281    0.6536 C   0  0  0  0  0  0  0  0  0  0  0  0
   -3.1634    1.0590   -1.8238 C   0  0  0  0  0  0  0  0  0  0  0  0
   -4.3357   -1.1066    0.9700 C   0  0  0  0  0  0  0  0  0  0  0  0
   -4.3000    2.4209   -0.1865 C   0  0  0  0  0  0  0  0  0  0  0  0
   -3.6128    2.3043   -1.3951 C   0  0  0  0  0  0  0  0  0  0  0  0
    3.6152    0.2276    0.3399 C   0  0  0  0  0  0  0  0  0  0  0  0
   -5.2367    1.3891    1.8287 C   0  0  0  0  0  0  0  0  0  0  0  0
    3.5737   -2.1313    0.8600 C   0  0  0  0  0  0  0  0  0  0  0  0
    5.0049    0.1789    0.2300 C   0  0  0  0  0  0  0  0  0  0  0  0
   -5.0232   -0.9899    2.1783 C   0  0  0  0  0  0  0  0  0  0  0  0
   -5.4729    0.2555    2.6069 C   0  0  0  0  0  0  0  0  0  0  0  0
    4.9633   -2.1802    0.7501 C   0  0  0  0  0  0  0  0  0  0  0  0
    5.6789   -1.0250    0.4352 C   0  0  0  0  0  0  0  0  0  0  0  0
    5.7704    1.4135   -0.1068 C   0  0  0  0  0  0  0  0  0  0  0  0
   -3.1268   -2.2293   -0.9224 H   0  0  0  0  0  0  0  0  0  0  0  0
   -1.0905   -1.9025    0.3075 H   0  0  0  0  0  0  0  0  0  0  0  0
   -1.0653   -0.1602   -0.0166 H   0  0  0  0  0  0  0  0  0  0  0  0
    1.0423   -0.4111   -1.3077 H   0  0  0  0  0  0  0  0  0  0  0  0
    1.0528   -2.1363   -0.9496 H   0  0  0  0  0  0  0  0  0  0  0  0
   -1.1166   -2.2897   -2.0750 H   0  0  0  0  0  0  0  0  0  0  0  0
    1.1093    0.1084    1.1519 H   0  0  0  0  0  0  0  0  0  0  0  0
    1.0818   -1.6007    1.5269 H   0  0  0  0  0  0  0  0  0  0  0  0
   -4.6155   -1.7765   -2.8372 H   0  0  0  0  0  0  0  0  0  0  0  0
   -3.2011   -2.7661   -3.2238 H   0  0  0  0  0  0  0  0  0  0  0  0
   -3.2506   -1.0703   -3.7154 H   0  0  0  0  0  0  0  0  0  0  0  0
   -2.6249    0.9992   -2.7659 H   0  0  0  0  0  0  0  0  0  0  0  0
   -4.0218   -2.1114    0.7179 H   0  0  0  0  0  0  0  0  0  0  0  0
   -4.6417    3.4044    0.1292 H   0  0  0  0  0  0  0  0  0  0  0  0
   -3.4273    3.1869   -2.0003 H   0  0  0  0  0  0  0  0  0  0  0  0
    3.0901    1.1655    0.1780 H   0  0  0  0  0  0  0  0  0  0  0  0
   -5.5971    2.3525    2.1834 H   0  0  0  0  0  0  0  0  0  0  0  0
    3.0251   -3.0368    1.1037 H   0  0  0  0  0  0  0  0  0  0  0  0
   -5.2075   -1.8712    2.7861 H   0  0  0  0  0  0  0  0  0  0  0  0
   -6.0078    0.3455    3.5479 H   0  0  0  0  0  0  0  0  0  0  0  0
    5.4879   -3.1177    0.9093 H   0  0  0  0  0  0  0  0  0  0  0  0
    6.7607   -1.0831    0.3540 H   0  0  0  0  0  0  0  0  0  0  0  0
  1 26  1  0  0  0  0
  2 26  1  0  0  0  0
  3 26  1  0  0  0  0
  4  5  1  0  0  0  0
  4  6  1  0  0  0  0
  4 32  1  0  0  0  0
  5  7  1  0  0  0  0
  5 11  1  0  0  0  0
  5 27  1  0  0  0  0
  6  8  1  0  0  0  0
  6 28  1  0  0  0  0
  6 29  1  0  0  0  0
  7 10  1  0  0  0  0
  7 14  2  0  0  0  0
  8  9  1  0  0  0  0
  8 30  1  0  0  0  0
  8 31  1  0  0  0  0
  9 13  1  0  0  0  0
  9 33  1  0  0  0  0
  9 34  1  0  0  0  0
 10 12  1  0  0  0  0
 10 15  2  0  0  0  0
 11 35  1  0  0  0  0
 11 36  1  0  0  0  0
 11 37  1  0  0  0  0
 12 16  1  0  0  0  0
 12 19  2  0  0  0  0
 13 18  2  0  0  0  0
 13 20  1  0  0  0  0
 14 17  1  0  0  0  0
 14 38  1  0  0  0  0
 15 22  1  0  0  0  0
 15 39  1  0  0  0  0
 16 17  2  0  0  0  0
 16 40  1  0  0  0  0
 17 41  1  0  0  0  0
 18 21  1  0  0  0  0
 18 42  1  0  0  0  0
 19 23  1  0  0  0  0
 19 43  1  0  0  0  0
 20 24  2  0  0  0  0
 20 44  1  0  0  0  0
 21 25  2  0  0  0  0
 21 26  1  0  0  0  0
 22 23  2  0  0  0  0
 22 45  1  0  0  0  0
 23 46  1  0  0  0  0
 24 25  1  0  0  0  0
 24 47  1  0  0  0  0
 25 48  1  0  0  0  0
M  END
> <PUBCHEM_COMPOUND_CID>
156419

> <PUBCHEM_CONFORMER_RMSD>
0.8

> <PUBCHEM_CONFORMER_DIVERSEORDER>
1
63
26
129
65
151
23
157
70
127
106
54
38
20
133
154
24
6
89
77
17
9
59
67
31
125
55
152
16
33
5
120
110
32
99
41
49
56
98
19
81
68
149
153
22
135
51
58
102
21
84
121
130
134
8
74
88
124
45
142
18
11
140
13
100
122
25
50
69
96
90
86
114
119
34
73
53
156
128
10
43
141
92
136
104
83
27
15
7
158
14
61
131
60
78
126
93
107
64
116
42
3
46
62
123
105
108
91
71
30
160
147
85
82
159
95
109
4
47
117
36
101
39
155
145
137
44
97
52
79
138
2
72
132
29
80
94
146
66
112
143
40
57
35
103
139
12
148
76
113
28
115
118
37
87
150
75
144
111
48

> <PUBCHEM_MMFF94_PARTIAL_CHARGES>
34
1 -0.34
13 -0.14
14 -0.15
15 -0.15
16 -0.15
17 -0.15
18 -0.15
19 -0.15
2 -0.34
20 -0.15
21 -0.14
22 -0.15
23 -0.15
24 -0.15
25 -0.15
26 1.16
3 -0.34
32 0.36
38 0.15
39 0.15
4 -0.9
40 0.15
41 0.15
42 0.15
43 0.15
44 0.15
45 0.15
46 0.15
47 0.15
48 0.15
5 0.41
6 0.27
7 -0.14
9 0.14

> <PUBCHEM_EFFECTIVE_ROTOR_COUNT>
7

> <PUBCHEM_PHARMACOPHORE_FEATURES>
5
1 4 cation
1 4 donor
6 10 12 15 19 22 23 rings
6 13 18 20 21 24 25 rings
6 7 10 12 14 16 17 rings

> <PUBCHEM_HEAVY_ATOM_COUNT>
26

> <PUBCHEM_ATOM_DEF_STEREO_COUNT>
1

> <PUBCHEM_ATOM_UDEF_STEREO_COUNT>
0

> <PUBCHEM_BOND_DEF_STEREO_COUNT>
0

> <PUBCHEM_BOND_UDEF_STEREO_COUNT>
0

> <PUBCHEM_ISOTOPIC_ATOM_COUNT>
0

> <PUBCHEM_COMPONENT_COUNT>
1

> <PUBCHEM_CACTVS_TAUTO_COUNT>
1

> <PUBCHEM_CONFORMER_ID>
0002630300000001

> <PUBCHEM_MMFF94_ENERGY>
60.6055

> <PUBCHEM_FEATURE_SELFOVERLAP>
25.398

> <PUBCHEM_SHAPE_FINGERPRINT>
105312 117 16702300152682455463
11135609 201 18262797514235288696
11273773 118 18130793347533124670
11370993 144 17751075800243136995
11475781 23 14620510074238073330
12596602 18 18260271828230085867
12616971 3 18341887464243261122
13583140 156 18188766133485045083
13782708 43 15864343585654956066
14211702 104 11169908356101056736
14840074 17 18131077008801605329
14848178 5 8286200548146721388
14950920 106 17532366474362183145
15021287 119 18264475218655789342
15081414 286 18113897170199061812
15183329 4 17704069603738873164
15338160 23 18201727297123810219
15348495 7 17894912880343220498
15513586 35 18269836591702642337
15537594 2 18343021103422591400
16110190 28 18410017606894131945
16120349 67 15841008671605224995
17780758 139 17023191475041024227
17844677 252 18187927240235407102
17857418 61 8430319043537195286
18470217 77 14707477144600841703
19377110 9 17168440340523940806
20028762 73 8070037662250206136
21315759 148 17749396918569463746
2303208 19 16732981982117737306
23198884 109 11743841335852020003
312425 54 16733266742285097473
3552219 110 18058444473963088079
3610482 184 17703795837690655140
4258327 124 18201714051454992013
469060 322 14779554469808216603
484985 159 7925619047772458733
497634 4 17988067989773984239
5104073 3 17531520984675645026
5364581 5 17676496068064824717
57724786 102 17914903028423386019
6034566 193 18131349700565011783
90127 26 18188484675261026854

> <PUBCHEM_SHAPE_MULTIPOLES>
508.27
18.33
2.55
2.24
22.28
0.95
-0.38
6.74
6.05
1.11
-0.47
-4.93
-0.62
-1.08

> <PUBCHEM_SHAPE_SELFOVERLAP>
1095.113

> <PUBCHEM_SHAPE_VOLUME>
282.3

> <PUBCHEM_COORDINATE_TYPE>
2
5
10

$$$$
