11644425
  -OEChem-10241303083D

 27 29  0     0  0  0  0  0  0999 V2000
    5.7871    0.3461    0.4763 F   0  0  0  0  0  0  0  0  0  0  0  0
    0.4062   -0.5939   -0.4454 N   0  0  0  0  0  0  0  0  0  0  0  0
   -0.6586    1.5044   -0.5540 N   0  0  0  0  0  0  0  0  0  0  0  0
   -1.8451    2.1396   -0.4305 N   0  0  0  0  0  0  0  0  0  0  0  0
   -4.0385    1.2318    0.0980 N   0  0  0  0  0  0  0  0  0  0  0  0
   -3.9512   -1.2486    0.4397 N   0  0  0  0  0  0  0  0  0  0  0  0
   -1.9271   -2.5489    0.2609 N   0  0  0  0  0  0  0  0  0  0  0  0
   -2.0253   -0.1002   -0.0747 C   0  0  0  0  0  0  0  0  0  0  0  0
   -0.7120    0.1514   -0.3492 C   0  0  0  0  0  0  0  0  0  0  0  0
   -2.6979    1.1529   -0.1335 C   0  0  0  0  0  0  0  0  0  0  0  0
    1.8165   -0.3473   -0.2042 C   0  0  0  0  0  0  0  0  0  0  0  0
   -2.6100   -1.3246    0.2077 C   0  0  0  0  0  0  0  0  0  0  0  0
    2.7407   -1.0463   -0.9438 C   0  0  0  0  0  0  0  0  0  0  0  0
    2.1668    0.5742    0.7538 C   0  0  0  0  0  0  0  0  0  0  0  0
    4.0956   -0.8098   -0.7114 C   0  0  0  0  0  0  0  0  0  0  0  0
    3.5217    0.8108    0.9860 C   0  0  0  0  0  0  0  0  0  0  0  0
   -4.5549   -0.0105    0.3707 C   0  0  0  0  0  0  0  0  0  0  0  0
    4.4861    0.1187    0.2535 C   0  0  0  0  0  0  0  0  0  0  0  0
    0.2878   -1.5579   -0.7496 H   0  0  0  0  0  0  0  0  0  0  0  0
    0.1532    2.0613   -0.7884 H   0  0  0  0  0  0  0  0  0  0  0  0
    2.4423   -1.7691   -1.6970 H   0  0  0  0  0  0  0  0  0  0  0  0
    1.4308    1.1109    1.3437 H   0  0  0  0  0  0  0  0  0  0  0  0
    4.8468   -1.3481   -1.2818 H   0  0  0  0  0  0  0  0  0  0  0  0
    3.8263    1.5313    1.7394 H   0  0  0  0  0  0  0  0  0  0  0  0
   -5.6239   -0.0221    0.5661 H   0  0  0  0  0  0  0  0  0  0  0  0
   -0.9246   -2.6029    0.1739 H   0  0  0  0  0  0  0  0  0  0  0  0
   -2.4517   -3.3845    0.4839 H   0  0  0  0  0  0  0  0  0  0  0  0
  1 18  1  0  0  0  0
  2  9  1  0  0  0  0
  2 11  1  0  0  0  0
  2 19  1  0  0  0  0
  3  4  1  0  0  0  0
  3  9  1  0  0  0  0
  3 20  1  0  0  0  0
  4 10  2  0  0  0  0
  5 10  1  0  0  0  0
  5 17  2  0  0  0  0
  6 12  2  0  0  0  0
  6 17  1  0  0  0  0
  7 12  1  0  0  0  0
  7 26  1  0  0  0  0
  7 27  1  0  0  0  0
  8  9  2  0  0  0  0
  8 10  1  0  0  0  0
  8 12  1  0  0  0  0
 11 13  2  0  0  0  0
 11 14  1  0  0  0  0
 13 15  1  0  0  0  0
 13 21  1  0  0  0  0
 14 16  2  0  0  0  0
 14 22  1  0  0  0  0
 15 18  2  0  0  0  0
 15 23  1  0  0  0  0
 16 18  1  0  0  0  0
 16 24  1  0  0  0  0
 17 25  1  0  0  0  0
M  END
> <PUBCHEM_COMPOUND_CID>
11644425

> <PUBCHEM_CONFORMER_RMSD>
0.6

> <PUBCHEM_CONFORMER_DIVERSEORDER>
2
5
4
6
1
3

> <PUBCHEM_MMFF94_PARTIAL_CHARGES>
26
1 -0.19
10 0.54
11 0.1
12 0.41
13 -0.15
14 -0.15
15 -0.15
16 -0.15
17 0.47
18 0.19
19 0.4
2 -0.58
20 0.27
21 0.15
22 0.15
23 0.15
24 0.15
25 0.15
26 0.4
27 0.4
3 0.3
4 -0.71
5 -0.57
6 -0.62
7 -0.9
9 -0.07

> <PUBCHEM_EFFECTIVE_ROTOR_COUNT>
2

> <PUBCHEM_PHARMACOPHORE_FEATURES>
10
1 2 cation
1 2 donor
1 3 donor
1 7 donor
3 4 5 10 cation
3 5 6 17 cation
3 6 7 12 cation
5 3 4 8 9 10 rings
6 11 13 14 15 16 18 rings
6 5 6 8 10 12 17 rings

> <PUBCHEM_HEAVY_ATOM_COUNT>
18

> <PUBCHEM_ATOM_DEF_STEREO_COUNT>
0

> <PUBCHEM_ATOM_UDEF_STEREO_COUNT>
0

> <PUBCHEM_BOND_DEF_STEREO_COUNT>
0

> <PUBCHEM_BOND_UDEF_STEREO_COUNT>
0

> <PUBCHEM_ISOTOPIC_ATOM_COUNT>
0

> <PUBCHEM_COMPONENT_COUNT>
1

> <PUBCHEM_CACTVS_TAUTO_COUNT>
22

> <PUBCHEM_CONFORMER_ID>
00B1AE0900000002

> <PUBCHEM_MMFF94_ENERGY>
62.4343

> <PUBCHEM_FEATURE_SELFOVERLAP>
51.169

> <PUBCHEM_SHAPE_FINGERPRINT>
10366900 7 18202272615486979472
10608611 8 18343298154604008112
11132069 177 18409169904797990317
11370993 144 17845389781401011859
11471102 20 17561081389432912188
11552529 35 17345471659930525455
11615757 297 16630525145964863834
12236239 1 16950282905852179470
12251169 10 18408603677531418493
13214271 11 18342172276166558669
14341114 176 18411422804476854680
14386348 63 18272654545456874122
15219456 202 18202283584902077206
15309172 13 17060621100674982415
15375358 24 18272089387579234390
15653759 3 18412262835317689720
17804303 29 18411140259684145521
17834074 16 18341897381016597558
19141452 34 18272937167485661311
200 152 17060614495263077239
20279233 1 18343868809617969302
20510252 161 18270119002945234993
20645477 56 18410292493058324285
20645477 70 17203050673655186742
21065198 57 18343021081942213746
21267235 1 18334585671921193499
21637258 2 15647628873283791201
22854114 59 17988925578372611374
2297311 6 18339374001894051492
23175994 123 17418098710575327512
23366157 5 17534068746148773805
23402539 116 18335413586485317367
23557571 272 18341905056460883004
23559900 14 18339083683748658902
2838139 119 15338001833241266065
3545911 37 18343303656620462708
4214541 1 18411138013394968832
43471831 8 18114462245718598531
474 4 14763475276336050826
5104073 3 18340489950235225162
542803 24 17167866357126356036
602551 16 18334295400830491738
69090 78 18273492373249012239
77779 3 18413390925689508264
9709674 26 18342182154359828542

> <PUBCHEM_SHAPE_MULTIPOLES>
333.27
10.21
1.74
0.84
5.75
0.27
-0.01
-0.12
-1.56
-1.5
0.05
0.47
-0.02
1

> <PUBCHEM_SHAPE_SELFOVERLAP>
740.424

> <PUBCHEM_SHAPE_VOLUME>
177.5

> <PUBCHEM_COORDINATE_TYPE>
2
5
10

$$$$
