3036253
  -OEChem-10241302523D

 59 61  0     0  0  0  0  0  0999 V2000
    3.7452   -1.3828   -0.6159 O   0  0  0  0  0  0  0  0  0  0  0  0
   -2.2220   -2.9998   -0.8862 O   0  5  0  0  0  0  0  0  0  0  0  0
   -1.9518   -2.7963    1.2901 O   0  0  0  0  0  0  0  0  0  0  0  0
    6.9464   -0.0198    0.6009 N   0  0  0  0  0  0  0  0  0  0  0  0
   -2.2521   -2.3711    0.1731 N   0  3  0  0  0  0  0  0  0  0  0  0
    6.0003   -0.6399   -0.3261 C   0  0  0  0  0  0  0  0  0  0  0  0
    8.3219   -0.3081    0.1965 C   0  0  0  0  0  0  0  0  0  0  0  0
    6.7250    1.4242    0.6669 C   0  0  0  0  0  0  0  0  0  0  0  0
    4.6345   -0.7936    0.3238 C   0  0  0  0  0  0  0  0  0  0  0  0
   -1.6927   -0.0758   -0.1236 C   0  0  0  0  0  0  0  0  0  0  0  0
   -0.2838   -0.4126   -0.2517 C   0  0  0  0  0  0  0  0  0  0  0  0
    8.6264    0.2789   -1.1714 C   0  0  0  0  0  0  0  0  0  0  0  0
    7.6588    2.0774    1.6717 C   0  0  0  0  0  0  0  0  0  0  0  0
    2.4182   -1.0621   -0.4960 C   0  0  0  0  0  0  0  0  0  0  0  0
   -2.1405    1.3549   -0.2377 C   0  0  0  0  0  0  0  0  0  0  0  0
   -2.6820   -1.0025    0.0985 C   0  0  0  0  0  0  0  0  0  0  0  0
    0.5333   -0.4346    0.8787 C   0  0  0  0  0  0  0  0  0  0  0  0
    0.2501   -0.7154   -1.5043 C   0  0  0  0  0  0  0  0  0  0  0  0
    1.8842   -0.7594    0.7565 C   0  0  0  0  0  0  0  0  0  0  0  0
    1.6013   -1.0402   -1.6265 C   0  0  0  0  0  0  0  0  0  0  0  0
   -4.1215   -0.7500    0.2540 C   0  0  0  0  0  0  0  0  0  0  0  0
   -2.4899    1.8792   -1.4823 C   0  0  0  0  0  0  0  0  0  0  0  0
   -2.2065    2.1582    0.9008 C   0  0  0  0  0  0  0  0  0  0  0  0
   -4.9553   -0.7548   -0.8644 C   0  0  0  0  0  0  0  0  0  0  0  0
   -4.6541   -0.5054    1.5198 C   0  0  0  0  0  0  0  0  0  0  0  0
   -2.9050    3.2066   -1.5885 C   0  0  0  0  0  0  0  0  0  0  0  0
   -2.6218    3.4857    0.7945 C   0  0  0  0  0  0  0  0  0  0  0  0
   -2.9711    4.0098   -0.4501 C   0  0  0  0  0  0  0  0  0  0  0  0
   -6.3214   -0.5149   -0.7170 C   0  0  0  0  0  0  0  0  0  0  0  0
   -6.0203   -0.2656    1.6671 C   0  0  0  0  0  0  0  0  0  0  0  0
   -6.8539   -0.2704    0.5487 C   0  0  0  0  0  0  0  0  0  0  0  0
    6.3336   -1.6473   -0.6113 H   0  0  0  0  0  0  0  0  0  0  0  0
    5.8929   -0.0824   -1.2659 H   0  0  0  0  0  0  0  0  0  0  0  0
    9.0504    0.0383    0.9370 H   0  0  0  0  0  0  0  0  0  0  0  0
    8.4687   -1.3956    0.1607 H   0  0  0  0  0  0  0  0  0  0  0  0
    6.7861    1.9318   -0.3023 H   0  0  0  0  0  0  0  0  0  0  0  0
    5.7133    1.6225    1.0374 H   0  0  0  0  0  0  0  0  0  0  0  0
    4.2645    0.1899    0.6319 H   0  0  0  0  0  0  0  0  0  0  0  0
    4.7052   -1.4440    1.2042 H   0  0  0  0  0  0  0  0  0  0  0  0
    7.9637   -0.0824   -1.9624 H   0  0  0  0  0  0  0  0  0  0  0  0
    8.6343    1.3723   -1.1830 H   0  0  0  0  0  0  0  0  0  0  0  0
    9.6379   -0.0293   -1.4633 H   0  0  0  0  0  0  0  0  0  0  0  0
    7.6638    1.5426    2.6277 H   0  0  0  0  0  0  0  0  0  0  0  0
    8.6863    2.1539    1.3035 H   0  0  0  0  0  0  0  0  0  0  0  0
    7.3217    3.1003    1.8741 H   0  0  0  0  0  0  0  0  0  0  0  0
    0.1308   -0.2086    1.8633 H   0  0  0  0  0  0  0  0  0  0  0  0
   -0.3730   -0.7041   -2.3954 H   0  0  0  0  0  0  0  0  0  0  0  0
    2.4776   -0.7939    1.6654 H   0  0  0  0  0  0  0  0  0  0  0  0
    2.0118   -1.2757   -2.6046 H   0  0  0  0  0  0  0  0  0  0  0  0
   -2.4442    1.2658   -2.3788 H   0  0  0  0  0  0  0  0  0  0  0  0
   -1.9380    1.7644    1.8780 H   0  0  0  0  0  0  0  0  0  0  0  0
   -4.5556   -0.9438   -1.8579 H   0  0  0  0  0  0  0  0  0  0  0  0
   -4.0176   -0.4981    2.4013 H   0  0  0  0  0  0  0  0  0  0  0  0
   -3.1773    3.6145   -2.5574 H   0  0  0  0  0  0  0  0  0  0  0  0
   -2.6736    4.1111    1.6810 H   0  0  0  0  0  0  0  0  0  0  0  0
   -3.2947    5.0432   -0.5327 H   0  0  0  0  0  0  0  0  0  0  0  0
   -6.9704   -0.5183   -1.5878 H   0  0  0  0  0  0  0  0  0  0  0  0
   -6.4350   -0.0747    2.6526 H   0  0  0  0  0  0  0  0  0  0  0  0
   -7.9176   -0.0834    0.6635 H   0  0  0  0  0  0  0  0  0  0  0  0
  1  9  1  0  0  0  0
  1 14  1  0  0  0  0
  2  5  1  0  0  0  0
  3  5  2  0  0  0  0
  4  6  1  0  0  0  0
  4  7  1  0  0  0  0
  4  8  1  0  0  0  0
  5 16  1  0  0  0  0
  6  9  1  0  0  0  0
  6 32  1  0  0  0  0
  6 33  1  0  0  0  0
  7 12  1  0  0  0  0
  7 34  1  0  0  0  0
  7 35  1  0  0  0  0
  8 13  1  0  0  0  0
  8 36  1  0  0  0  0
  8 37  1  0  0  0  0
  9 38  1  0  0  0  0
  9 39  1  0  0  0  0
 10 11  1  0  0  0  0
 10 15  1  0  0  0  0
 10 16  2  0  0  0  0
 11 17  2  0  0  0  0
 11 18  1  0  0  0  0
 12 40  1  0  0  0  0
 12 41  1  0  0  0  0
 12 42  1  0  0  0  0
 13 43  1  0  0  0  0
 13 44  1  0  0  0  0
 13 45  1  0  0  0  0
 14 19  2  0  0  0  0
 14 20  1  0  0  0  0
 15 22  2  0  0  0  0
 15 23  1  0  0  0  0
 16 21  1  0  0  0  0
 17 19  1  0  0  0  0
 17 46  1  0  0  0  0
 18 20  2  0  0  0  0
 18 47  1  0  0  0  0
 19 48  1  0  0  0  0
 20 49  1  0  0  0  0
 21 24  2  0  0  0  0
 21 25  1  0  0  0  0
 22 26  1  0  0  0  0
 22 50  1  0  0  0  0
 23 27  2  0  0  0  0
 23 51  1  0  0  0  0
 24 29  1  0  0  0  0
 24 52  1  0  0  0  0
 25 30  2  0  0  0  0
 25 53  1  0  0  0  0
 26 28  2  0  0  0  0
 26 54  1  0  0  0  0
 27 28  1  0  0  0  0
 27 55  1  0  0  0  0
 28 56  1  0  0  0  0
 29 31  2  0  0  0  0
 29 57  1  0  0  0  0
 30 31  1  0  0  0  0
 30 58  1  0  0  0  0
 31 59  1  0  0  0  0
M  CHG  2   2  -1   5   1
M  END
> <PUBCHEM_COMPOUND_CID>
3036253

> <PUBCHEM_CONFORMER_RMSD>
1

> <PUBCHEM_CONFORMER_DIVERSEORDER>
1
4
22
15
19
18
20
9
14
11
3
13
5
7
16
10
8
17
21
12
6
2

> <PUBCHEM_MMFF94_PARTIAL_CHARGES>
43
1 -0.36
10 -0.06
11 0.03
14 0.08
15 0.03
16 0.18
17 -0.15
18 -0.15
19 -0.15
2 -0.52
20 -0.15
21 0.03
22 -0.15
23 -0.15
24 -0.15
25 -0.15
26 -0.15
27 -0.15
28 -0.15
29 -0.15
3 -0.52
30 -0.15
31 -0.15
4 -0.81
46 0.15
47 0.15
48 0.15
49 0.15
5 0.84
50 0.15
51 0.15
52 0.15
53 0.15
54 0.15
55 0.15
56 0.15
57 0.15
58 0.15
59 0.15
6 0.27
7 0.27
8 0.27
9 0.28

> <PUBCHEM_EFFECTIVE_ROTOR_COUNT>
10

> <PUBCHEM_PHARMACOPHORE_FEATURES>
8
1 1 acceptor
1 2 acceptor
1 2 anion
1 3 acceptor
1 4 cation
6 11 14 17 18 19 20 rings
6 15 22 23 26 27 28 rings
6 21 24 25 29 30 31 rings

> <PUBCHEM_HEAVY_ATOM_COUNT>
31

> <PUBCHEM_ATOM_DEF_STEREO_COUNT>
0

> <PUBCHEM_ATOM_UDEF_STEREO_COUNT>
0

> <PUBCHEM_BOND_DEF_STEREO_COUNT>
1

> <PUBCHEM_BOND_UDEF_STEREO_COUNT>
0

> <PUBCHEM_ISOTOPIC_ATOM_COUNT>
0

> <PUBCHEM_COMPONENT_COUNT>
1

> <PUBCHEM_CACTVS_TAUTO_COUNT>
1

> <PUBCHEM_CONFORMER_ID>
002E545D00000001

> <PUBCHEM_MMFF94_ENERGY>
109.8615

> <PUBCHEM_FEATURE_SELFOVERLAP>
40.676

> <PUBCHEM_SHAPE_FINGERPRINT>
10 15 18334857230045186610
10290309 65 18200032824661005494
10369192 42 17132117931008755484
10930396 42 18262225733354411737
11315181 36 17022627472161206598
12107698 1 18409445895117626016
12664476 115 18202001037112158880
12788726 201 18263947491808069853
13073987 5 18188207590263080202
13140716 1 18264219178427978219
14118638 360 18187645757027510098
14856354 85 18411142480293371646
15183329 4 15338847499801781418
15338160 23 18269843030001407481
17686467 74 18271801393185001411
18393751 57 18343589555192605055
20721686 146 15050909477605128857
21792961 116 18059859416494458050
22956985 138 17398114232342933891
23559900 14 18338510953785361442
283562 15 18336264527824901011
3418910 222 18114479915446364732
34797466 226 17989491819014812710
350125 39 18411420600657816145
4144715 1 18409455761369706962
469060 322 18116171991116750049
5080951 261 17344597449428660999
5104073 3 18116148870938361850
7226269 152 18334011692660697547

> <PUBCHEM_SHAPE_MULTIPOLES>
610.4
21.18
3.3
1.51
48.15
3.27
-0.03
2.39
4.06
-3.75
-0.24
-0.33
0.28
1.9

> <PUBCHEM_SHAPE_SELFOVERLAP>
1300.966

> <PUBCHEM_SHAPE_VOLUME>
340.5

> <PUBCHEM_COORDINATE_TYPE>
2
5
10

$$$$
