159325
  -OEChem-10241302563D

 66 68  0     1  0  0  0  0  0999 V2000
    0.6362   -0.8045   -4.7829 F   0  0  0  0  0  0  0  0  0  0  0  0
    1.4592    0.9385   -3.7886 F   0  0  0  0  0  0  0  0  0  0  0  0
    1.8903   -1.0510   -3.0237 F   0  0  0  0  0  0  0  0  0  0  0  0
    5.5239    1.9046    0.5338 F   0  0  0  0  0  0  0  0  0  0  0  0
    6.5021    0.0780    1.1746 F   0  0  0  0  0  0  0  0  0  0  0  0
    5.7314    0.2418   -0.8522 F   0  0  0  0  0  0  0  0  0  0  0  0
    1.1849   -3.7287    1.6579 F   0  0  0  0  0  0  0  0  0  0  0  0
    2.5473   -3.9116   -0.0197 F   0  0  0  0  0  0  0  0  0  0  0  0
    3.3038   -4.0639    2.0132 F   0  0  0  0  0  0  0  0  0  0  0  0
   -5.5822   -1.0371    0.8686 O   0  0  0  0  0  0  0  0  0  0  0  0
    1.4279    3.4511    0.7666 O   0  0  0  0  0  0  0  0  0  0  0  0
   -4.7370   -2.0048   -1.0075 O   0  0  0  0  0  0  0  0  0  0  0  0
   -0.4188    3.2823   -0.5693 O   0  0  0  0  0  0  0  0  0  0  0  0
   -3.7090   -0.0843   -0.1077 N   0  0  0  0  0  0  0  0  0  0  0  0
   -0.0455    1.7150    1.1274 N   0  0  0  0  0  0  0  0  0  0  0  0
   -3.7557    0.9496    0.9607 C   0  0  1  0  0  0  0  0  0  0  0  0
   -1.2291    0.9283    0.8741 C   0  0  1  0  0  0  0  0  0  0  0  0
   -2.4688    1.7747    1.1162 C   0  0  0  0  0  0  0  0  0  0  0  0
   -1.3261    0.3900   -0.5362 C   0  0  0  0  0  0  0  0  0  0  0  0
   -2.5709   -0.1007   -0.9907 C   0  0  0  0  0  0  0  0  0  0  0  0
   -4.9180    1.9307    0.7328 C   0  0  0  0  0  0  0  0  0  0  0  0
   -0.2019    0.3052   -1.3762 C   0  0  0  0  0  0  0  0  0  0  0  0
    0.8173    1.2674    2.2211 C   0  0  0  0  0  0  0  0  0  0  0  0
   -2.6601   -0.6137   -2.2955 C   0  0  0  0  0  0  0  0  0  0  0  0
   -5.0684    2.8850    1.9000 C   0  0  0  0  0  0  0  0  0  0  0  0
   -4.6861   -1.1074   -0.1690 C   0  0  0  0  0  0  0  0  0  0  0  0
   -0.3095   -0.2176   -2.6631 C   0  0  0  0  0  0  0  0  0  0  0  0
   -1.5389   -0.6684   -3.1249 C   0  0  0  0  0  0  0  0  0  0  0  0
    0.2631    2.8549    0.3607 C   0  0  0  0  0  0  0  0  0  0  0  0
    1.8964    0.3400    1.7420 C   0  0  0  0  0  0  0  0  0  0  0  0
    0.8917   -0.2808   -3.5470 C   0  0  0  0  0  0  0  0  0  0  0  0
    1.6698   -1.0359    1.7084 C   0  0  0  0  0  0  0  0  0  0  0  0
    3.1261    0.8546    1.3314 C   0  0  0  0  0  0  0  0  0  0  0  0
    2.6730   -1.8973    1.2640 C   0  0  0  0  0  0  0  0  0  0  0  0
    4.1291   -0.0068    0.8869 C   0  0  0  0  0  0  0  0  0  0  0  0
   -6.5789   -2.0649    0.9216 C   0  0  0  0  0  0  0  0  0  0  0  0
    3.9026   -1.3827    0.8532 C   0  0  0  0  0  0  0  0  0  0  0  0
    1.8245    4.6214    0.0420 C   0  0  0  0  0  0  0  0  0  0  0  0
    5.4439    0.5437    0.4474 C   0  0  0  0  0  0  0  0  0  0  0  0
    2.4304   -3.3686    1.2281 C   0  0  0  0  0  0  0  0  0  0  0  0
   -7.4701   -1.8261    2.1217 C   0  0  0  0  0  0  0  0  0  0  0  0
   -3.9223    0.4088    1.9022 H   0  0  0  0  0  0  0  0  0  0  0  0
   -1.2403    0.0650    1.5516 H   0  0  0  0  0  0  0  0  0  0  0  0
   -2.5011    2.6237    0.4218 H   0  0  0  0  0  0  0  0  0  0  0  0
   -2.4241    2.2051    2.1253 H   0  0  0  0  0  0  0  0  0  0  0  0
   -5.8629    1.3918    0.6069 H   0  0  0  0  0  0  0  0  0  0  0  0
   -4.7700    2.4956   -0.1960 H   0  0  0  0  0  0  0  0  0  0  0  0
    0.7791    0.6288   -1.0413 H   0  0  0  0  0  0  0  0  0  0  0  0
    1.2724    2.1369    2.7111 H   0  0  0  0  0  0  0  0  0  0  0  0
    0.2080    0.7926    3.0003 H   0  0  0  0  0  0  0  0  0  0  0  0
   -3.6045   -0.9420   -2.7184 H   0  0  0  0  0  0  0  0  0  0  0  0
   -4.2438    3.6012    1.9597 H   0  0  0  0  0  0  0  0  0  0  0  0
   -5.9878    3.4690    1.7836 H   0  0  0  0  0  0  0  0  0  0  0  0
   -5.1359    2.3469    2.8509 H   0  0  0  0  0  0  0  0  0  0  0  0
   -1.6497   -1.0644   -4.1307 H   0  0  0  0  0  0  0  0  0  0  0  0
    0.7106   -1.4320    2.0315 H   0  0  0  0  0  0  0  0  0  0  0  0
    3.3142    1.9226    1.3758 H   0  0  0  0  0  0  0  0  0  0  0  0
   -6.0909   -3.0416    1.0117 H   0  0  0  0  0  0  0  0  0  0  0  0
   -7.1782   -2.0388    0.0048 H   0  0  0  0  0  0  0  0  0  0  0  0
    4.6845   -2.0541    0.5064 H   0  0  0  0  0  0  0  0  0  0  0  0
    2.7630    4.9832    0.4704 H   0  0  0  0  0  0  0  0  0  0  0  0
    1.0666    5.4038    0.1432 H   0  0  0  0  0  0  0  0  0  0  0  0
    1.9909    4.3752   -1.0109 H   0  0  0  0  0  0  0  0  0  0  0  0
   -8.2454   -2.5941    2.1926 H   0  0  0  0  0  0  0  0  0  0  0  0
   -7.9497   -0.8438    2.0557 H   0  0  0  0  0  0  0  0  0  0  0  0
   -6.8818   -1.8306    3.0453 H   0  0  0  0  0  0  0  0  0  0  0  0
  1 31  1  0  0  0  0
  2 31  1  0  0  0  0
  3 31  1  0  0  0  0
  4 39  1  0  0  0  0
  5 39  1  0  0  0  0
  6 39  1  0  0  0  0
  7 40  1  0  0  0  0
  8 40  1  0  0  0  0
  9 40  1  0  0  0  0
 10 26  1  0  0  0  0
 10 36  1  0  0  0  0
 11 29  1  0  0  0  0
 11 38  1  0  0  0  0
 12 26  2  0  0  0  0
 13 29  2  0  0  0  0
 14 16  1  0  0  0  0
 14 20  1  0  0  0  0
 14 26  1  0  0  0  0
 15 17  1  0  0  0  0
 15 23  1  0  0  0  0
 15 29  1  0  0  0  0
 16 18  1  0  0  0  0
 16 21  1  0  0  0  0
 16 42  1  0  0  0  0
 17 18  1  0  0  0  0
 17 19  1  0  0  0  0
 17 43  1  0  0  0  0
 18 44  1  0  0  0  0
 18 45  1  0  0  0  0
 19 20  2  0  0  0  0
 19 22  1  0  0  0  0
 20 24  1  0  0  0  0
 21 25  1  0  0  0  0
 21 46  1  0  0  0  0
 21 47  1  0  0  0  0
 22 27  2  0  0  0  0
 22 48  1  0  0  0  0
 23 30  1  0  0  0  0
 23 49  1  0  0  0  0
 23 50  1  0  0  0  0
 24 28  2  0  0  0  0
 24 51  1  0  0  0  0
 25 52  1  0  0  0  0
 25 53  1  0  0  0  0
 25 54  1  0  0  0  0
 27 28  1  0  0  0  0
 27 31  1  0  0  0  0
 28 55  1  0  0  0  0
 30 32  2  0  0  0  0
 30 33  1  0  0  0  0
 32 34  1  0  0  0  0
 32 56  1  0  0  0  0
 33 35  2  0  0  0  0
 33 57  1  0  0  0  0
 34 37  2  0  0  0  0
 34 40  1  0  0  0  0
 35 37  1  0  0  0  0
 35 39  1  0  0  0  0
 36 41  1  0  0  0  0
 36 58  1  0  0  0  0
 36 59  1  0  0  0  0
 37 60  1  0  0  0  0
 38 61  1  0  0  0  0
 38 62  1  0  0  0  0
 38 63  1  0  0  0  0
 41 64  1  0  0  0  0
 41 65  1  0  0  0  0
 41 66  1  0  0  0  0
M  END
> <PUBCHEM_COMPOUND_CID>
159325

> <PUBCHEM_CONFORMER_RMSD>
1.2

> <PUBCHEM_CONFORMER_DIVERSEORDER>
1
4
6
19
27
22
36
40
15
38
44
26
18
24
7
10
29
30
41
13
45
3
17
12
39
9
28
42
35
43
31
16
25
32
23
5
11
2
21
34
20
37
8
33
14

> <PUBCHEM_MMFF94_PARTIAL_CHARGES>
43
1 -0.34
10 -0.43
11 -0.43
12 -0.57
13 -0.57
14 -0.48
15 -0.66
16 0.3
17 0.44
19 -0.14
2 -0.34
20 0.12
22 -0.15
23 0.44
24 -0.15
26 0.78
27 -0.14
28 -0.15
29 0.78
3 -0.34
30 -0.14
31 1.16
32 -0.15
33 -0.15
34 -0.14
35 -0.14
36 0.28
37 -0.15
38 0.28
39 1.16
4 -0.34
40 1.16
48 0.15
5 -0.34
51 0.15
55 0.15
56 0.15
57 0.15
6 -0.34
60 0.15
7 -0.34
8 -0.34
9 -0.34

> <PUBCHEM_EFFECTIVE_ROTOR_COUNT>
12.8

> <PUBCHEM_PHARMACOPHORE_FEATURES>
6
1 12 acceptor
1 13 acceptor
1 25 hydrophobe
6 14 16 17 18 19 20 rings
6 19 20 22 24 27 28 rings
6 30 32 33 34 35 37 rings

> <PUBCHEM_HEAVY_ATOM_COUNT>
41

> <PUBCHEM_ATOM_DEF_STEREO_COUNT>
2

> <PUBCHEM_ATOM_UDEF_STEREO_COUNT>
0

> <PUBCHEM_BOND_DEF_STEREO_COUNT>
0

> <PUBCHEM_BOND_UDEF_STEREO_COUNT>
0

> <PUBCHEM_ISOTOPIC_ATOM_COUNT>
0

> <PUBCHEM_COMPONENT_COUNT>
1

> <PUBCHEM_CACTVS_TAUTO_COUNT>
1

> <PUBCHEM_CONFORMER_ID>
00026E5D00000001

> <PUBCHEM_MMFF94_ENERGY>
93.3384

> <PUBCHEM_FEATURE_SELFOVERLAP>
30.472

> <PUBCHEM_SHAPE_FINGERPRINT>
11578080 2 17970897865396207125
11763715 3 18046369460165312120
12107698 1 18272650203398094545
12128747 34 18115847665061501461
12156800 1 17978821178394191798
12422481 6 17345745274937294535
13583140 156 18338782473539609013
13726171 33 17561368387511271864
13782708 43 17241030008570477498
13911987 19 18114191869422378352
150020 26 16412939324370621710
15064986 96 17202769176771063767
15274700 242 18195782186523684536
15537594 2 18059562603292812802
15840311 113 17680435438313597745
19319366 153 17909535496093134409
22182313 1 17489039158773031757
25222932 49 18342458162154193155
3737641 26 18338509738457511250
5265222 85 16844726585889013560

> <PUBCHEM_SHAPE_MULTIPOLES>
744.86
12.74
4.25
3.52
9.52
1.02
4.87
-3.99
-8.53
-1.45
-2.09
-0.49
-2.03
-1.26

> <PUBCHEM_SHAPE_SELFOVERLAP>
1591.054

> <PUBCHEM_SHAPE_VOLUME>
414.2

> <PUBCHEM_COORDINATE_TYPE>
2
5
10

$$$$
