5484727
  -OEChem-10241303053D

 65 67  0     1  0  0  0  0  0999 V2000
    1.8404    2.5564    0.4531 O   0  0  0  0  0  0  0  0  0  0  0  0
    1.5080   -2.9272   -0.7730 O   0  0  0  0  0  0  0  0  0  0  0  0
    1.3256   -1.5101    1.0031 O   0  0  0  0  0  0  0  0  0  0  0  0
   -4.2455    2.4494   -0.3021 O   0  0  0  0  0  0  0  0  0  0  0  0
   -2.7200    3.0794    1.3071 O   0  0  0  0  0  0  0  0  0  0  0  0
    2.5845    0.4925   -0.2987 N   0  0  0  0  0  0  0  0  0  0  0  0
   -0.6829    1.9644   -0.0651 N   0  0  0  0  0  0  0  0  0  0  0  0
    4.6047   -0.7018   -0.2000 C   0  0  1  0  0  0  0  0  0  0  0  0
    4.0063    0.6978   -0.0361 C   0  0  2  0  0  0  0  0  0  0  0  0
    3.8072   -1.2534   -1.3731 C   0  0  0  0  0  0  0  0  0  0  0  0
    2.3892   -0.7650   -1.0364 C   0  0  1  0  0  0  0  0  0  0  0  0
    6.1150   -0.6170   -0.3168 C   0  0  0  0  0  0  0  0  0  0  0  0
    4.4449    1.2547    1.3143 C   0  0  0  0  0  0  0  0  0  0  0  0
    6.6716    0.0093    0.9707 C   0  0  0  0  0  0  0  0  0  0  0  0
    5.9809    1.3282    1.3528 C   0  0  0  0  0  0  0  0  0  0  0  0
    1.6494    1.5117   -0.1722 C   0  0  0  0  0  0  0  0  0  0  0  0
    1.6874   -1.7417   -0.1410 C   0  0  0  0  0  0  0  0  0  0  0  0
    0.3258    1.2860   -0.8603 C   0  0  2  0  0  0  0  0  0  0  0  0
    0.3743    1.8412   -2.2692 C   0  0  0  0  0  0  0  0  0  0  0  0
   -2.0100    1.7958   -0.6450 C   0  0  1  0  0  0  0  0  0  0  0  0
   -2.3989    0.3125   -0.7527 C   0  0  0  0  0  0  0  0  0  0  0  0
   -2.9983    2.5186    0.2551 C   0  0  0  0  0  0  0  0  0  0  0  0
   -2.4674   -0.4460    0.5804 C   0  0  0  0  0  0  0  0  0  0  0  0
   -2.9113   -1.8803    0.4414 C   0  0  0  0  0  0  0  0  0  0  0  0
   -5.2876    3.0979    0.4337 C   0  0  0  0  0  0  0  0  0  0  0  0
   -1.9617   -2.8712    0.2427 C   0  0  0  0  0  0  0  0  0  0  0  0
   -4.2624   -2.1851    0.5141 C   0  0  0  0  0  0  0  0  0  0  0  0
   -2.3726   -4.1979    0.1138 C   0  0  0  0  0  0  0  0  0  0  0  0
   -4.6732   -3.5118    0.3854 C   0  0  0  0  0  0  0  0  0  0  0  0
   -6.5948    2.9308   -0.3113 C   0  0  0  0  0  0  0  0  0  0  0  0
   -3.7285   -4.5181    0.1852 C   0  0  0  0  0  0  0  0  0  0  0  0
    4.3640   -1.3172    0.6808 H   0  0  0  0  0  0  0  0  0  0  0  0
    4.3604    1.3703   -0.8307 H   0  0  0  0  0  0  0  0  0  0  0  0
    4.1480   -0.7980   -2.3112 H   0  0  0  0  0  0  0  0  0  0  0  0
    3.9027   -2.3392   -1.4653 H   0  0  0  0  0  0  0  0  0  0  0  0
    1.7988   -0.6133   -1.9434 H   0  0  0  0  0  0  0  0  0  0  0  0
    6.5457   -1.6138   -0.4624 H   0  0  0  0  0  0  0  0  0  0  0  0
    6.4035   -0.0075   -1.1813 H   0  0  0  0  0  0  0  0  0  0  0  0
    4.0409    2.2571    1.4847 H   0  0  0  0  0  0  0  0  0  0  0  0
    4.0768    0.6212    2.1305 H   0  0  0  0  0  0  0  0  0  0  0  0
    6.5439   -0.7038    1.7952 H   0  0  0  0  0  0  0  0  0  0  0  0
    7.7493    0.1761    0.8629 H   0  0  0  0  0  0  0  0  0  0  0  0
    6.3080    1.6365    2.3524 H   0  0  0  0  0  0  0  0  0  0  0  0
    6.3130    2.1100    0.6578 H   0  0  0  0  0  0  0  0  0  0  0  0
    0.1246    0.2180   -0.8741 H   0  0  0  0  0  0  0  0  0  0  0  0
   -0.4677    2.9608   -0.0124 H   0  0  0  0  0  0  0  0  0  0  0  0
    0.3790    2.9380   -2.2761 H   0  0  0  0  0  0  0  0  0  0  0  0
   -0.4652    1.4973   -2.8817 H   0  0  0  0  0  0  0  0  0  0  0  0
    1.2891    1.5297   -2.7865 H   0  0  0  0  0  0  0  0  0  0  0  0
    1.0834   -3.5953   -0.1941 H   0  0  0  0  0  0  0  0  0  0  0  0
   -2.0803    2.2886   -1.6216 H   0  0  0  0  0  0  0  0  0  0  0  0
   -1.7636   -0.2260   -1.4652 H   0  0  0  0  0  0  0  0  0  0  0  0
   -3.3962    0.2574   -1.2131 H   0  0  0  0  0  0  0  0  0  0  0  0
   -1.4881   -0.4270    1.0751 H   0  0  0  0  0  0  0  0  0  0  0  0
   -3.1496    0.0618    1.2738 H   0  0  0  0  0  0  0  0  0  0  0  0
   -0.9110   -2.6289    0.1866 H   0  0  0  0  0  0  0  0  0  0  0  0
   -5.0059   -1.4079    0.6672 H   0  0  0  0  0  0  0  0  0  0  0  0
   -5.0536    4.1633    0.5367 H   0  0  0  0  0  0  0  0  0  0  0  0
   -5.3679    2.6449    1.4281 H   0  0  0  0  0  0  0  0  0  0  0  0
   -1.6367   -4.9812   -0.0423 H   0  0  0  0  0  0  0  0  0  0  0  0
   -5.7289   -3.7612    0.4403 H   0  0  0  0  0  0  0  0  0  0  0  0
   -7.4155    3.4151    0.2249 H   0  0  0  0  0  0  0  0  0  0  0  0
   -6.5242    3.3627   -1.3151 H   0  0  0  0  0  0  0  0  0  0  0  0
   -6.8326    1.8694   -0.4382 H   0  0  0  0  0  0  0  0  0  0  0  0
   -4.0484   -5.5512    0.0846 H   0  0  0  0  0  0  0  0  0  0  0  0
  1 16  2  0  0  0  0
  2 17  1  0  0  0  0
  2 50  1  0  0  0  0
  3 17  2  0  0  0  0
  4 22  1  0  0  0  0
  4 25  1  0  0  0  0
  5 22  2  0  0  0  0
  6  9  1  0  0  0  0
  6 11  1  0  0  0  0
  6 16  1  0  0  0  0
  7 18  1  0  0  0  0
  7 20  1  0  0  0  0
  7 46  1  0  0  0  0
  8  9  1  0  0  0  0
  8 10  1  0  0  0  0
  8 12  1  0  0  0  0
  8 32  1  0  0  0  0
  9 13  1  0  0  0  0
  9 33  1  0  0  0  0
 10 11  1  0  0  0  0
 10 34  1  0  0  0  0
 10 35  1  0  0  0  0
 11 17  1  0  0  0  0
 11 36  1  0  0  0  0
 12 14  1  0  0  0  0
 12 37  1  0  0  0  0
 12 38  1  0  0  0  0
 13 15  1  0  0  0  0
 13 39  1  0  0  0  0
 13 40  1  0  0  0  0
 14 15  1  0  0  0  0
 14 41  1  0  0  0  0
 14 42  1  0  0  0  0
 15 43  1  0  0  0  0
 15 44  1  0  0  0  0
 16 18  1  0  0  0  0
 18 19  1  0  0  0  0
 18 45  1  0  0  0  0
 19 47  1  0  0  0  0
 19 48  1  0  0  0  0
 19 49  1  0  0  0  0
 20 21  1  0  0  0  0
 20 22  1  0  0  0  0
 20 51  1  0  0  0  0
 21 23  1  0  0  0  0
 21 52  1  0  0  0  0
 21 53  1  0  0  0  0
 23 24  1  0  0  0  0
 23 54  1  0  0  0  0
 23 55  1  0  0  0  0
 24 26  2  0  0  0  0
 24 27  1  0  0  0  0
 25 30  1  0  0  0  0
 25 58  1  0  0  0  0
 25 59  1  0  0  0  0
 26 28  1  0  0  0  0
 26 56  1  0  0  0  0
 27 29  2  0  0  0  0
 27 57  1  0  0  0  0
 28 31  2  0  0  0  0
 28 60  1  0  0  0  0
 29 31  1  0  0  0  0
 29 61  1  0  0  0  0
 30 62  1  0  0  0  0
 30 63  1  0  0  0  0
 30 64  1  0  0  0  0
 31 65  1  0  0  0  0
M  END
> <PUBCHEM_COMPOUND_CID>
5484727

> <PUBCHEM_CONFORMER_RMSD>
1.2

> <PUBCHEM_CONFORMER_DIVERSEORDER>
1
11
5
27
2
20
21
14
28
8
13
33
26
6
22
30
23
4
24
10
12
7
32
16
29
17
3
15
25
18
19
31
9

> <PUBCHEM_MMFF94_PARTIAL_CHARGES>
29
1 -0.57
11 0.36
16 0.57
17 0.66
18 0.33
2 -0.65
20 0.33
22 0.66
23 0.14
24 -0.14
25 0.28
26 -0.15
27 -0.15
28 -0.15
29 -0.15
3 -0.57
31 -0.15
4 -0.43
46 0.36
5 -0.57
50 0.5
56 0.15
57 0.15
6 -0.66
60 0.15
61 0.15
65 0.15
7 -0.9
9 0.3

> <PUBCHEM_EFFECTIVE_ROTOR_COUNT>
12.4

> <PUBCHEM_PHARMACOPHORE_FEATURES>
10
1 1 acceptor
1 2 acceptor
1 3 acceptor
1 5 acceptor
1 7 cation
1 7 donor
3 2 3 17 anion
5 6 8 9 10 11 rings
6 24 26 27 28 29 31 rings
6 8 9 12 13 14 15 rings

> <PUBCHEM_HEAVY_ATOM_COUNT>
31

> <PUBCHEM_ATOM_DEF_STEREO_COUNT>
5

> <PUBCHEM_ATOM_UDEF_STEREO_COUNT>
0

> <PUBCHEM_BOND_DEF_STEREO_COUNT>
0

> <PUBCHEM_BOND_UDEF_STEREO_COUNT>
0

> <PUBCHEM_ISOTOPIC_ATOM_COUNT>
0

> <PUBCHEM_COMPONENT_COUNT>
1

> <PUBCHEM_CACTVS_TAUTO_COUNT>
1

> <PUBCHEM_CONFORMER_ID>
0053B0B700000001

> <PUBCHEM_MMFF94_ENERGY>
68.3809

> <PUBCHEM_FEATURE_SELFOVERLAP>
50.874

> <PUBCHEM_SHAPE_FINGERPRINT>
10050765 1 18337392763714749164
10864689 126 18122070801340943828
10940486 97 18188223051539081349
11045977 3 18272931588396873316
11135609 187 18191292785931964141
11445158 3 14274326690500906631
12166972 35 17024302148740975702
12422481 6 18057889245749136294
12788726 201 18118698848487137319
13540713 5 17896615048760341924
13583140 156 17704066317883689728
138480 1 16535672137974406703
14068700 675 18117557542469593007
14117953 113 18268713977630936767
14178342 30 18408325479741374892
14725015 67 18265328602481772587
14790565 3 18050290263402444161
14866123 147 18409733980703055187
15927050 60 18339357445264987455
19301679 30 18119537780597768459
20642791 13 18409728486917787031
21033648 29 18191583043431687789
21360443 126 18408040697492367772
23559900 14 18342168960215247769
244849 19 17703527510267993830
3383291 50 18410576193714415315
4073 2 18413105057335949688
4340502 62 18340205168144583172
4403749 210 18271795883137722928
469060 322 17240194439551634222
5080951 261 18115283657738574572
508706 21 18411978078764639742
5104073 3 18339629102236188136
57527293 21 17894905231708397972
653340 110 18411417336345358866

> <PUBCHEM_SHAPE_MULTIPOLES>
598.66
14.27
5.36
1.23
8.38
3.19
0.27
-2.98
-3.69
-11.68
-0.49
1.02
-0.48
1.25

> <PUBCHEM_SHAPE_SELFOVERLAP>
1245.466

> <PUBCHEM_SHAPE_VOLUME>
339.7

> <PUBCHEM_COORDINATE_TYPE>
2
5
10

$$$$
