63046
  -OEChem-10241303123D

 73 77  0     1  0  0  0  0  0999 V2000
   -9.6978   -0.1317   -0.5866 S   0  0  0  0  0  0  0  0  0  0  0  0
    4.6347    0.1194   -1.3123 F   0  0  0  0  0  0  0  0  0  0  0  0
    0.4038    1.0044   -1.8248 O   0  0  0  0  0  0  0  0  0  0  0  0
    3.2909   -2.4085    0.8608 O   0  0  0  0  0  0  0  0  0  0  0  0
   -1.1325   -1.1510   -0.3603 O   0  0  0  0  0  0  0  0  0  0  0  0
   -3.4588    0.1439    0.0016 O   0  0  0  0  0  0  0  0  0  0  0  0
    9.4830   -0.3170   -1.6182 O   0  0  0  0  0  0  0  0  0  0  0  0
   -4.7405    2.0300    0.2458 O   0  0  0  0  0  0  0  0  0  0  0  0
  -10.4105    0.5366    0.7243 O   0  0  0  0  0  0  0  0  0  0  0  0
   -9.5348    0.9303   -1.5687 O   0  0  0  0  0  0  0  0  0  0  0  0
  -10.4212   -1.3481   -0.9228 O   0  0  0  0  0  0  0  0  0  0  0  0
    1.4466    0.0076    0.1567 C   0  0  1  0  0  0  0  0  0  0  0  0
    2.4848    1.1492    0.2189 C   0  0  2  0  0  0  0  0  0  0  0  0
    3.8320    0.7194    0.8202 C   0  0  1  0  0  0  0  0  0  0  0  0
    4.4406   -0.4302   -0.0544 C   0  0  1  0  0  0  0  0  0  0  0  0
    0.2381    0.7986   -0.4259 C   0  0  1  0  0  0  0  0  0  0  0  0
    1.7213    2.3007    0.8727 C   0  0  0  0  0  0  0  0  0  0  0  0
    2.0312   -1.0977   -0.7469 C   0  0  0  0  0  0  0  0  0  0  0  0
    0.2634    2.1418    0.3645 C   0  0  1  0  0  0  0  0  0  0  0  0
    3.4241   -1.5877   -0.2889 C   0  0  2  0  0  0  0  0  0  0  0  0
    5.8761   -0.8593    0.4465 C   0  0  1  0  0  0  0  0  0  0  0  0
    4.7899    1.9225    0.9023 C   0  0  0  0  0  0  0  0  0  0  0  0
    1.0819   -0.5680    1.5535 C   0  0  0  0  0  0  0  0  0  0  0  0
    6.1792    1.5230    1.3850 C   0  0  0  0  0  0  0  0  0  0  0  0
    6.7314    0.4106    0.5309 C   0  0  0  0  0  0  0  0  0  0  0  0
   -1.0719    0.0763   -0.3042 C   0  0  0  0  0  0  0  0  0  0  0  0
   -0.1930    3.3676   -0.4213 C   0  0  0  0  0  0  0  0  0  0  0  0
    5.8833   -1.5321    1.8384 C   0  0  0  0  0  0  0  0  0  0  0  0
    6.4869   -1.8700   -0.5139 C   0  0  0  0  0  0  0  0  0  0  0  0
    7.8841    0.5796   -0.1358 C   0  0  0  0  0  0  0  0  0  0  0  0
   -2.2992    0.9415   -0.1110 C   0  0  0  0  0  0  0  0  0  0  0  0
    7.6335   -1.7073   -1.1811 C   0  0  0  0  0  0  0  0  0  0  0  0
    8.4209   -0.4708   -1.0248 C   0  0  0  0  0  0  0  0  0  0  0  0
   -4.6514    0.8082    0.1816 C   0  0  0  0  0  0  0  0  0  0  0  0
   -5.7762   -0.1226    0.2850 C   0  0  0  0  0  0  0  0  0  0  0  0
   -7.0377    0.2711   -0.1464 C   0  0  0  0  0  0  0  0  0  0  0  0
   -5.5718   -1.3921    0.8137 C   0  0  0  0  0  0  0  0  0  0  0  0
   -8.1093   -0.6164   -0.0478 C   0  0  0  0  0  0  0  0  0  0  0  0
   -6.6432   -2.2797    0.9122 C   0  0  0  0  0  0  0  0  0  0  0  0
   -7.9120   -1.8919    0.4814 C   0  0  0  0  0  0  0  0  0  0  0  0
    2.6992    1.4817   -0.8101 H   0  0  0  0  0  0  0  0  0  0  0  0
    3.6827    0.3654    1.8440 H   0  0  0  0  0  0  0  0  0  0  0  0
    1.7499    2.2146    1.9656 H   0  0  0  0  0  0  0  0  0  0  0  0
    2.1554    3.2709    0.6086 H   0  0  0  0  0  0  0  0  0  0  0  0
    2.1497   -0.7295   -1.7727 H   0  0  0  0  0  0  0  0  0  0  0  0
    1.3420   -1.9490   -0.7913 H   0  0  0  0  0  0  0  0  0  0  0  0
   -0.3444    2.0839    1.2743 H   0  0  0  0  0  0  0  0  0  0  0  0
    3.7950   -2.2343   -1.0917 H   0  0  0  0  0  0  0  0  0  0  0  0
    4.3864    2.6777    1.5871 H   0  0  0  0  0  0  0  0  0  0  0  0
    4.8717    2.4023   -0.0820 H   0  0  0  0  0  0  0  0  0  0  0  0
    0.3619    0.0603    2.0885 H   0  0  0  0  0  0  0  0  0  0  0  0
    0.6256   -1.5603    1.4672 H   0  0  0  0  0  0  0  0  0  0  0  0
    1.9310   -0.6610    2.2295 H   0  0  0  0  0  0  0  0  0  0  0  0
    6.1375    1.2026    2.4323 H   0  0  0  0  0  0  0  0  0  0  0  0
    6.8294    2.4061    1.3621 H   0  0  0  0  0  0  0  0  0  0  0  0
   -1.2226    3.2966   -0.7719 H   0  0  0  0  0  0  0  0  0  0  0  0
   -0.1309    4.2612    0.2104 H   0  0  0  0  0  0  0  0  0  0  0  0
    0.4483    3.5438   -1.2917 H   0  0  0  0  0  0  0  0  0  0  0  0
    5.2840   -0.9894    2.5753 H   0  0  0  0  0  0  0  0  0  0  0  0
    5.5189   -2.5646    1.8080 H   0  0  0  0  0  0  0  0  0  0  0  0
    6.9039   -1.5879    2.2408 H   0  0  0  0  0  0  0  0  0  0  0  0
    0.3135    0.1504   -2.2799 H   0  0  0  0  0  0  0  0  0  0  0  0
    5.9629   -2.8134   -0.6510 H   0  0  0  0  0  0  0  0  0  0  0  0
    3.3580   -1.8601    1.6560 H   0  0  0  0  0  0  0  0  0  0  0  0
    8.4585    1.4969   -0.0609 H   0  0  0  0  0  0  0  0  0  0  0  0
   -2.4093    1.5725   -0.9968 H   0  0  0  0  0  0  0  0  0  0  0  0
   -2.2192    1.5308    0.8027 H   0  0  0  0  0  0  0  0  0  0  0  0
    8.0165   -2.4775   -1.8404 H   0  0  0  0  0  0  0  0  0  0  0  0
   -7.1842    1.2680   -0.5537 H   0  0  0  0  0  0  0  0  0  0  0  0
   -4.5972   -1.7162    1.1685 H   0  0  0  0  0  0  0  0  0  0  0  0
   -6.4906   -3.2711    1.3287 H   0  0  0  0  0  0  0  0  0  0  0  0
   -8.7325   -2.5975    0.5761 H   0  0  0  0  0  0  0  0  0  0  0  0
   -9.9642    1.3384    1.0854 H   0  0  0  0  0  0  0  0  0  0  0  0
  1  9  1  0  0  0  0
  1 10  2  0  0  0  0
  1 11  2  0  0  0  0
  1 38  1  0  0  0  0
  2 15  1  0  0  0  0
  3 16  1  0  0  0  0
  3 62  1  0  0  0  0
  4 20  1  0  0  0  0
  4 64  1  0  0  0  0
  5 26  2  0  0  0  0
  6 31  1  0  0  0  0
  6 34  1  0  0  0  0
  7 33  2  0  0  0  0
  8 34  2  0  0  0  0
  9 73  1  0  0  0  0
 12 13  1  0  0  0  0
 12 16  1  0  0  0  0
 12 18  1  0  0  0  0
 12 23  1  0  0  0  0
 13 14  1  0  0  0  0
 13 17  1  0  0  0  0
 13 41  1  0  0  0  0
 14 15  1  0  0  0  0
 14 22  1  0  0  0  0
 14 42  1  0  0  0  0
 15 20  1  0  0  0  0
 15 21  1  0  0  0  0
 16 19  1  0  0  0  0
 16 26  1  0  0  0  0
 17 19  1  0  0  0  0
 17 43  1  0  0  0  0
 17 44  1  0  0  0  0
 18 20  1  0  0  0  0
 18 45  1  0  0  0  0
 18 46  1  0  0  0  0
 19 27  1  0  0  0  0
 19 47  1  0  0  0  0
 20 48  1  0  0  0  0
 21 25  1  0  0  0  0
 21 28  1  0  0  0  0
 21 29  1  0  0  0  0
 22 24  1  0  0  0  0
 22 49  1  0  0  0  0
 22 50  1  0  0  0  0
 23 51  1  0  0  0  0
 23 52  1  0  0  0  0
 23 53  1  0  0  0  0
 24 25  1  0  0  0  0
 24 54  1  0  0  0  0
 24 55  1  0  0  0  0
 25 30  2  0  0  0  0
 26 31  1  0  0  0  0
 27 56  1  0  0  0  0
 27 57  1  0  0  0  0
 27 58  1  0  0  0  0
 28 59  1  0  0  0  0
 28 60  1  0  0  0  0
 28 61  1  0  0  0  0
 29 32  2  0  0  0  0
 29 63  1  0  0  0  0
 30 33  1  0  0  0  0
 30 65  1  0  0  0  0
 31 66  1  0  0  0  0
 31 67  1  0  0  0  0
 32 33  1  0  0  0  0
 32 68  1  0  0  0  0
 34 35  1  0  0  0  0
 35 36  2  0  0  0  0
 35 37  1  0  0  0  0
 36 38  1  0  0  0  0
 36 69  1  0  0  0  0
 37 39  2  0  0  0  0
 37 70  1  0  0  0  0
 38 40  2  0  0  0  0
 39 40  1  0  0  0  0
 39 71  1  0  0  0  0
 40 72  1  0  0  0  0
M  END
> <PUBCHEM_COMPOUND_CID>
63046

> <PUBCHEM_CONFORMER_RMSD>
1

> <PUBCHEM_CONFORMER_DIVERSEORDER>
3
12
6
113
141
45
103
53
85
134
63
154
24
136
73
13
112
97
155
84
87
77
5
125
147
31
33
148
9
16
82
44
65
30
64
151
55
21
93
128
49
4
56
62
138
149
130
142
69
95
23
7
72
99
50
122
89
90
143
120
57
32
71
22
127
116
29
19
111
18
101
60
10
76
28
1
58
81
131
96
114
8
123
74
15
104
11
36
91
38
68
100
46
132
159
139
108
88
137
121
107
124
39
70
115
153
78
117
144
25
86
2
109
140
14
150
20
27
26
48
42
67
54
119
52
102
156
59
98
66
47
145
34
158
146
106
75
135
110
41
35
94
157
51
17
105
80
92
129
83
133
126
37
43
152
40
118
79
61

> <PUBCHEM_MMFF94_PARTIAL_CHARGES>
40
1 1.49
10 -0.65
11 -0.65
15 0.34
16 0.34
2 -0.34
20 0.28
21 0.28
24 0.14
25 -0.28
26 0.45
29 -0.29
3 -0.68
30 -0.14
31 0.34
32 -0.14
33 0.54
34 0.63
35 0.09
36 -0.15
37 -0.15
38 -0.01
39 -0.15
4 -0.68
40 -0.15
5 -0.57
6 -0.43
62 0.4
63 0.15
64 0.4
65 0.15
68 0.15
69 0.15
7 -0.57
70 0.15
71 0.15
72 0.15
73 0.5
8 -0.57
9 -0.68

> <PUBCHEM_EFFECTIVE_ROTOR_COUNT>
7.4

> <PUBCHEM_PHARMACOPHORE_FEATURES>
16
1 10 acceptor
1 11 acceptor
1 3 acceptor
1 3 donor
1 4 acceptor
1 4 donor
1 5 acceptor
1 7 acceptor
1 8 acceptor
1 9 acceptor
4 1 9 10 11 anion
5 12 13 16 17 19 rings
6 12 13 14 15 18 20 rings
6 14 15 21 22 24 25 rings
6 21 25 29 30 32 33 rings
6 35 36 37 38 39 40 rings

> <PUBCHEM_HEAVY_ATOM_COUNT>
40

> <PUBCHEM_ATOM_DEF_STEREO_COUNT>
8

> <PUBCHEM_ATOM_UDEF_STEREO_COUNT>
0

> <PUBCHEM_BOND_DEF_STEREO_COUNT>
0

> <PUBCHEM_BOND_UDEF_STEREO_COUNT>
0

> <PUBCHEM_ISOTOPIC_ATOM_COUNT>
0

> <PUBCHEM_COMPONENT_COUNT>
1

> <PUBCHEM_CACTVS_TAUTO_COUNT>
6

> <PUBCHEM_CONFORMER_ID>
0000F64600000003

> <PUBCHEM_MMFF94_ENERGY>
130.0467

> <PUBCHEM_FEATURE_SELFOVERLAP>
81.36

> <PUBCHEM_SHAPE_FINGERPRINT>
10580692 12 18131069346189091032
10677351 14 18186804694429400405
10883706 142 11672064133873455349
11115154 58 15863789491348852413
11146851 88 18272369789763732163
11456790 92 12607404386530497030
12013929 2 18272933796326412233
12089408 11 14851599973903414249
12522641 126 18042415797041955652
12522641 24 17846212297877417624
13617811 41 17458065954741256668
13811026 1 18410855482489195771
14040221 8 17676489419893196989
150020 25 18410012147879675819
15065858 18 18272645775893181005
15131766 46 13828125167304481082
15183329 4 14996281418651236769
15247644 1 16630529526963882582
15510794 2 18342176683167202335
15840311 113 18272931669843412076
15849732 13 18413671326845351943
16067689 302 18201725008085629006
16728433 281 16517350108680922869
19315958 150 17988638666664072120
19841028 212 17822567209795712642
20105231 36 17917717868928203510
21267235 1 18272937111650865496
232437 2 18131070442397619271
23559900 14 18335134350452716393
249057 3 18334012818263648579
3092352 35 14117798020252685884
335352 9 18411703196541538718
439807 62 18113333089761990570
4461854 278 17989213671879056751
4625314 4 18336265738657668125
5937810 71 11675141667722071255
6081469 158 18410855447465000996
6126387 218 17989208141052266593
9663363 56 18413386536691900232
9962374 69 17846489370723002957

> <PUBCHEM_SHAPE_MULTIPOLES>
766.93
33.58
2.42
1.28
59.22
0.71
0.02
-11.66
5.99
-0.59
-0.31
-1.27
-0.15
1.61

> <PUBCHEM_SHAPE_SELFOVERLAP>
1662.766

> <PUBCHEM_SHAPE_VOLUME>
423.8

> <PUBCHEM_COORDINATE_TYPE>
2
5
10

$$$$
