72976
  -OEChem-10241302593D

 37 40  0     1  0  0  0  0  0999 V2000
    3.0282   -0.7360    0.8645 O   0  0  0  0  0  0  0  0  0  0  0  0
    3.3852    1.5558    0.3407 O   0  0  0  0  0  0  0  0  0  0  0  0
    2.6254   -2.8449    0.0263 O   0  0  0  0  0  0  0  0  0  0  0  0
    0.8907    3.3060   -0.3366 O   0  0  0  0  0  0  0  0  0  0  0  0
    1.2246   -1.0081   -0.6018 C   0  0  2  0  0  0  0  0  0  0  0  0
    1.2979    0.4574   -0.2327 C   0  0  1  0  0  0  0  0  0  0  0  0
    1.5545    0.0239   -1.6560 C   0  0  0  0  0  0  0  0  0  0  0  0
   -0.1503   -1.6518   -0.6157 C   0  0  0  0  0  0  0  0  0  0  0  0
   -1.0335   -1.0590    0.4909 C   0  0  1  0  0  0  0  0  0  0  0  0
    0.0226    1.1483    0.0735 C   0  0  0  0  0  0  0  0  0  0  0  0
    2.4352    0.5761    0.7415 C   0  0  1  0  0  0  0  0  0  0  0  0
   -1.0775    0.4561    0.4303 C   0  0  0  0  0  0  0  0  0  0  0  0
    2.3510   -1.6586    0.1153 C   0  0  0  0  0  0  0  0  0  0  0  0
   -2.5037   -1.4943    0.4217 C   0  0  0  0  0  0  0  0  0  0  0  0
   -3.3164   -0.2336    0.0617 C   0  0  0  0  0  0  0  0  0  0  0  0
   -2.4870    0.9157    0.6634 C   0  0  0  0  0  0  0  0  0  0  0  0
   -0.0648    2.6146   -0.0206 C   0  0  0  0  0  0  0  0  0  0  0  0
   -4.7223   -0.2911    0.6890 C   0  0  0  0  0  0  0  0  0  0  0  0
   -3.4600   -0.0765   -1.4553 C   0  0  0  0  0  0  0  0  0  0  0  0
    0.8099    0.2517   -2.4112 H   0  0  0  0  0  0  0  0  0  0  0  0
    2.5673    0.0525   -2.0422 H   0  0  0  0  0  0  0  0  0  0  0  0
   -0.0606   -2.7355   -0.4758 H   0  0  0  0  0  0  0  0  0  0  0  0
   -0.6159   -1.5093   -1.5989 H   0  0  0  0  0  0  0  0  0  0  0  0
   -0.6267   -1.3557    1.4674 H   0  0  0  0  0  0  0  0  0  0  0  0
    2.0800    0.8517    1.7406 H   0  0  0  0  0  0  0  0  0  0  0  0
   -2.6691   -2.3139   -0.2867 H   0  0  0  0  0  0  0  0  0  0  0  0
   -2.8010   -1.8696    1.4101 H   0  0  0  0  0  0  0  0  0  0  0  0
   -2.6594    1.0077    1.7423 H   0  0  0  0  0  0  0  0  0  0  0  0
   -2.7388    1.8669    0.1885 H   0  0  0  0  0  0  0  0  0  0  0  0
   -1.0287    3.0795    0.2296 H   0  0  0  0  0  0  0  0  0  0  0  0
    3.4341    1.5653   -0.6290 H   0  0  0  0  0  0  0  0  0  0  0  0
   -5.2908   -1.1427    0.2994 H   0  0  0  0  0  0  0  0  0  0  0  0
   -4.6686   -0.3960    1.7784 H   0  0  0  0  0  0  0  0  0  0  0  0
   -5.2859    0.6227    0.4711 H   0  0  0  0  0  0  0  0  0  0  0  0
   -4.0132    0.8361   -1.7048 H   0  0  0  0  0  0  0  0  0  0  0  0
   -2.4917   -0.0190   -1.9625 H   0  0  0  0  0  0  0  0  0  0  0  0
   -4.0060   -0.9229   -1.8871 H   0  0  0  0  0  0  0  0  0  0  0  0
  1 11  1  0  0  0  0
  1 13  1  0  0  0  0
  2 11  1  0  0  0  0
  2 31  1  0  0  0  0
  3 13  2  0  0  0  0
  4 17  2  0  0  0  0
  5  6  1  0  0  0  0
  5  7  1  0  0  0  0
  5  8  1  0  0  0  0
  5 13  1  0  0  0  0
  6  7  1  0  0  0  0
  6 10  1  0  0  0  0
  6 11  1  0  0  0  0
  7 20  1  0  0  0  0
  7 21  1  0  0  0  0
  8  9  1  0  0  0  0
  8 22  1  0  0  0  0
  8 23  1  0  0  0  0
  9 12  1  0  0  0  0
  9 14  1  0  0  0  0
  9 24  1  0  0  0  0
 10 12  2  0  0  0  0
 10 17  1  0  0  0  0
 11 25  1  0  0  0  0
 12 16  1  0  0  0  0
 14 15  1  0  0  0  0
 14 26  1  0  0  0  0
 14 27  1  0  0  0  0
 15 16  1  0  0  0  0
 15 18  1  0  0  0  0
 15 19  1  0  0  0  0
 16 28  1  0  0  0  0
 16 29  1  0  0  0  0
 17 30  1  0  0  0  0
 18 32  1  0  0  0  0
 18 33  1  0  0  0  0
 18 34  1  0  0  0  0
 19 35  1  0  0  0  0
 19 36  1  0  0  0  0
 19 37  1  0  0  0  0
M  END
> <PUBCHEM_COMPOUND_CID>
72976

> <PUBCHEM_CONFORMER_RMSD>
0.6

> <PUBCHEM_CONFORMER_DIVERSEORDER>
1

> <PUBCHEM_MMFF94_PARTIAL_CHARGES>
19
1 -0.43
10 -0.03
11 0.65
12 -0.28
13 0.72
16 0.14
17 0.5
2 -0.68
20 0.1
21 0.1
3 -0.57
30 0.06
31 0.4
4 -0.57
5 -0.09
6 -0.05
7 -0.2
8 0.09
9 0.14

> <PUBCHEM_EFFECTIVE_ROTOR_COUNT>
2.4

> <PUBCHEM_PHARMACOPHORE_FEATURES>
8
1 2 acceptor
1 2 donor
1 3 acceptor
1 4 acceptor
3 15 18 19 hydrophobe
5 9 12 14 15 16 rings
6 1 5 6 7 11 13 rings
7 5 6 7 8 9 10 12 rings

> <PUBCHEM_HEAVY_ATOM_COUNT>
19

> <PUBCHEM_ATOM_DEF_STEREO_COUNT>
4

> <PUBCHEM_ATOM_UDEF_STEREO_COUNT>
0

> <PUBCHEM_BOND_DEF_STEREO_COUNT>
0

> <PUBCHEM_BOND_UDEF_STEREO_COUNT>
0

> <PUBCHEM_ISOTOPIC_ATOM_COUNT>
0

> <PUBCHEM_COMPONENT_COUNT>
1

> <PUBCHEM_CACTVS_TAUTO_COUNT>
1

> <PUBCHEM_CONFORMER_ID>
00011D1000000001

> <PUBCHEM_MMFF94_ENERGY>
50.6722

> <PUBCHEM_FEATURE_SELFOVERLAP>
41.12

> <PUBCHEM_SHAPE_FINGERPRINT>
10922523 26 17967246477696176359
10967382 1 18411139159897951371
1100329 8 15094526501787274603
11578080 2 17314497133655166452
12011746 2 18413105087079038868
12423570 1 10028352584731072534
12553582 1 18338528438539051463
13132413 78 18268144430253612292
13134695 92 18337095800831988861
13140716 1 17980481479363778273
13172582 1 18412830204808256899
13571099 22 18187363190617448703
14178342 30 18269268126837009659
14181834 199 18266453402802777125
14289901 80 15482672377378102443
14790565 3 18120942973411516900
15375462 6 18410853222909142994
16945 1 18338242668800701677
17804303 29 18124602972578393726
18186145 218 18341900684141788975
19784866 170 18411130377333481032
20559304 39 18335148621505096253
20739085 24 18196116389996379209
21267235 1 18339935843461437411
21501502 16 18198066880632143640
21524375 3 17405999933689308612
23184049 29 18122343484730615498
2334 1 18340492175007100217
23388829 49 18272929470471600665
23402539 116 18271232829651262783
23419403 2 16748110101899258504
23463225 33 18411421674378209891
23559900 14 18266451002348568458
2748010 2 18340770329894846533
296302 2 18261669367453816793
3286 77 18259985994357363431
34934 24 18411414050705640947
5104073 3 18341341015812498971
7364860 26 18337678627825600760
74978 22 18337962289304590547
81228 2 18052270496243505249

> <PUBCHEM_SHAPE_MULTIPOLES>
367.53
6.02
2.58
1.07
4.37
1.06
0.35
-1.23
-0.84
-1.82
0.04
0.15
-0.05
0.01

> <PUBCHEM_SHAPE_SELFOVERLAP>
811.96

> <PUBCHEM_SHAPE_VOLUME>
200.8

> <PUBCHEM_COORDINATE_TYPE>
2
5
10

$$$$
