150849
  -OEChem-10241303093D

 19 20  0     0  0  0  0  0  0999 V2000
   -3.8522   -0.2012    0.0002 Br  0  0  0  0  0  0  0  0  0  0  0  0
   -1.4174   -2.0927   -0.0009 O   0  0  0  0  0  0  0  0  0  0  0  0
    0.3350   -0.4516    0.0003 C   0  0  0  0  0  0  0  0  0  0  0  0
    0.7189    0.9105   -0.0001 C   0  0  0  0  0  0  0  0  0  0  0  0
   -1.0303   -0.7804    0.0004 C   0  0  0  0  0  0  0  0  0  0  0  0
   -0.2740    1.9039   -0.0002 C   0  0  0  0  0  0  0  0  0  0  0  0
    1.3278   -1.4451    0.0004 C   0  0  0  0  0  0  0  0  0  0  0  0
    2.0843    1.2392   -0.0002 C   0  0  0  0  0  0  0  0  0  0  0  0
   -2.0032    0.2194    0.0002 C   0  0  0  0  0  0  0  0  0  0  0  0
   -1.6258    1.5590   -0.0001 C   0  0  0  0  0  0  0  0  0  0  0  0
    2.6797   -1.1003    0.0002 C   0  0  0  0  0  0  0  0  0  0  0  0
    3.0572    0.2393   -0.0001 C   0  0  0  0  0  0  0  0  0  0  0  0
   -0.0017    2.9573   -0.0004 H   0  0  0  0  0  0  0  0  0  0  0  0
    1.0918   -2.5054   -0.0168 H   0  0  0  0  0  0  0  0  0  0  0  0
    2.4024    2.2797   -0.0007 H   0  0  0  0  0  0  0  0  0  0  0  0
   -2.3700    2.3515   -0.0003 H   0  0  0  0  0  0  0  0  0  0  0  0
    3.4382   -1.8778   -0.0038 H   0  0  0  0  0  0  0  0  0  0  0  0
    4.1097    0.5070   -0.0013 H   0  0  0  0  0  0  0  0  0  0  0  0
   -0.7896   -2.6226    0.5157 H   0  0  0  0  0  0  0  0  0  0  0  0
  1  9  1  0  0  0  0
  2  5  1  0  0  0  0
  2 19  1  0  0  0  0
  3  4  1  0  0  0  0
  3  5  1  0  0  0  0
  3  7  2  0  0  0  0
  4  6  1  0  0  0  0
  4  8  2  0  0  0  0
  5  9  2  0  0  0  0
  6 10  2  0  0  0  0
  6 13  1  0  0  0  0
  7 11  1  0  0  0  0
  7 14  1  0  0  0  0
  8 12  1  0  0  0  0
  8 15  1  0  0  0  0
  9 10  1  0  0  0  0
 10 16  1  0  0  0  0
 11 12  2  0  0  0  0
 11 17  1  0  0  0  0
 12 18  1  0  0  0  0
M  END
> <PUBCHEM_COMPOUND_CID>
150849

> <PUBCHEM_CONFORMER_RMSD>
0.4

> <PUBCHEM_CONFORMER_DIVERSEORDER>
1

> <PUBCHEM_MMFF94_PARTIAL_CHARGES>
17
1 -0.11
10 -0.15
11 -0.15
12 -0.15
13 0.15
14 0.15
15 0.15
16 0.15
17 0.15
18 0.15
19 0.45
2 -0.53
5 0.08
6 -0.15
7 -0.15
8 -0.15
9 0.11

> <PUBCHEM_EFFECTIVE_ROTOR_COUNT>
0

> <PUBCHEM_PHARMACOPHORE_FEATURES>
4
1 1 hydrophobe
1 2 donor
6 3 4 5 6 9 10 rings
6 3 4 7 8 11 12 rings

> <PUBCHEM_HEAVY_ATOM_COUNT>
12

> <PUBCHEM_ATOM_DEF_STEREO_COUNT>
0

> <PUBCHEM_ATOM_UDEF_STEREO_COUNT>
0

> <PUBCHEM_BOND_DEF_STEREO_COUNT>
0

> <PUBCHEM_BOND_UDEF_STEREO_COUNT>
0

> <PUBCHEM_ISOTOPIC_ATOM_COUNT>
0

> <PUBCHEM_COMPONENT_COUNT>
1

> <PUBCHEM_CACTVS_TAUTO_COUNT>
3

> <PUBCHEM_CONFORMER_ID>
00024D4100000001

> <PUBCHEM_MMFF94_ENERGY>
36.5109

> <PUBCHEM_FEATURE_SELFOVERLAP>
20.324

> <PUBCHEM_SHAPE_FINGERPRINT>
10219947 1 18412830183423123635
10967382 1 18410575114733137734
11132069 177 18341324573902027611
11206711 2 18264210214234808125
11471102 20 18410288116818926685
12032990 46 18409736153328616323
12423570 1 12387911164851386130
12524768 44 18413112740373072286
13380535 76 18411417327792438286
14325111 11 18411137991846506629
16945 1 18410855464555160292
17844478 74 18040440979715888413
193761 8 17762338423957570469
20201158 50 18409448085286975475
20510252 161 18201156546692121720
20588541 1 18411421734507621987
20645477 70 18339355280501133255
21040471 1 18266459815352245952
21501502 16 18339083661951971256
2334 1 17906452477966894370
23402539 116 18342726404199151207
23402655 69 18341323427747308973
23463225 33 18409167692599669452
23552423 10 18261113036250778956
23559900 14 18126852595793265142
2748010 2 18050568748400967100
5084963 1 18129938962346895441
528886 8 18339356465320970746
53812653 166 18199744911396014080
53812654 25 18272920639918379495
7364860 26 18342740766891996784
8809292 202 18260834825243913898

> <PUBCHEM_SHAPE_MULTIPOLES>
247.03
4.92
1.94
0.62
1.78
0.02
0
-0.63
0
0
0
0.04
0.01
0

> <PUBCHEM_SHAPE_SELFOVERLAP>
528.969

> <PUBCHEM_SHAPE_VOLUME>
141.9

> <PUBCHEM_COORDINATE_TYPE>
2
5
10

$$$$
