3495594
  -OEChem-10241303063D

 28 29  0     0  0  0  0  0  0999 V2000
    3.8353    0.0025    1.8564 F   0  0  0  0  0  0  0  0  0  0  0  0
   -4.1551    0.8062   -0.6666 O   0  0  0  0  0  0  0  0  0  0  0  0
   -2.5108    3.0192   -0.5306 O   0  0  0  0  0  0  0  0  0  0  0  0
    1.3988    0.3796    2.2241 O   0  0  0  0  0  0  0  0  0  0  0  0
   -2.7011   -2.8544    0.3554 O   0  5  0  0  0  0  0  0  0  0  0  0
   -4.3771   -1.6202   -0.3425 O   0  0  0  0  0  0  0  0  0  0  0  0
   -3.1872   -1.7448    0.0324 N   0  3  0  0  0  0  0  0  0  0  0  0
   -0.2494    0.4063    0.5646 C   0  0  0  0  0  0  0  0  0  0  0  0
    1.1696    0.2660    1.0109 C   0  0  0  0  0  0  0  0  0  0  0  0
   -1.0366   -0.7201    0.5104 C   0  0  0  0  0  0  0  0  0  0  0  0
    2.2572    0.0062    0.0807 C   0  0  0  0  0  0  0  0  0  0  0  0
   -2.3613   -0.5887    0.0937 C   0  0  0  0  0  0  0  0  0  0  0  0
   -0.7114    1.6569    0.2260 C   0  0  0  0  0  0  0  0  0  0  0  0
   -2.8610    0.6655   -0.2567 C   0  0  0  0  0  0  0  0  0  0  0  0
   -2.0361    1.7883   -0.1905 C   0  0  0  0  0  0  0  0  0  0  0  0
    3.5654   -0.1172    0.5484 C   0  0  0  0  0  0  0  0  0  0  0  0
    1.9890   -0.1204   -1.2823 C   0  0  0  0  0  0  0  0  0  0  0  0
    4.6055   -0.3671   -0.3468 C   0  0  0  0  0  0  0  0  0  0  0  0
    3.0291   -0.3702   -2.1775 C   0  0  0  0  0  0  0  0  0  0  0  0
    4.3373   -0.4936   -1.7098 C   0  0  0  0  0  0  0  0  0  0  0  0
   -0.6149   -1.6815    0.7911 H   0  0  0  0  0  0  0  0  0  0  0  0
   -0.0670    2.5297    0.2784 H   0  0  0  0  0  0  0  0  0  0  0  0
    0.9867   -0.0320   -1.6902 H   0  0  0  0  0  0  0  0  0  0  0  0
    5.6239   -0.4631    0.0177 H   0  0  0  0  0  0  0  0  0  0  0  0
    2.8209   -0.4688   -3.2389 H   0  0  0  0  0  0  0  0  0  0  0  0
    5.1471   -0.6881   -2.4068 H   0  0  0  0  0  0  0  0  0  0  0  0
   -4.7070    0.1006   -0.2958 H   0  0  0  0  0  0  0  0  0  0  0  0
   -3.4429    2.9255   -0.7937 H   0  0  0  0  0  0  0  0  0  0  0  0
  1 16  1  0  0  0  0
  2 14  1  0  0  0  0
  2 27  1  0  0  0  0
  3 15  1  0  0  0  0
  3 28  1  0  0  0  0
  4  9  2  0  0  0  0
  5  7  1  0  0  0  0
  6  7  2  0  0  0  0
  7 12  1  0  0  0  0
  8  9  1  0  0  0  0
  8 10  2  0  0  0  0
  8 13  1  0  0  0  0
  9 11  1  0  0  0  0
 10 12  1  0  0  0  0
 10 21  1  0  0  0  0
 11 16  1  0  0  0  0
 11 17  2  0  0  0  0
 12 14  2  0  0  0  0
 13 15  2  0  0  0  0
 13 22  1  0  0  0  0
 14 15  1  0  0  0  0
 16 18  2  0  0  0  0
 17 19  1  0  0  0  0
 17 23  1  0  0  0  0
 18 20  1  0  0  0  0
 18 24  1  0  0  0  0
 19 20  2  0  0  0  0
 19 25  1  0  0  0  0
 20 26  1  0  0  0  0
M  CHG  2   5  -1   7   1
M  END
> <PUBCHEM_COMPOUND_CID>
3495594

> <PUBCHEM_CONFORMER_RMSD>
0.6

> <PUBCHEM_CONFORMER_DIVERSEORDER>
2
3
9
17
16
13
11
8
6
12
15
14
18
1
10
7
5
4
20
19

> <PUBCHEM_MMFF94_PARTIAL_CHARGES>
28
1 -0.19
10 -0.15
11 0.09
12 0.13
13 -0.15
14 0.08
15 0.08
16 0.19
17 -0.15
18 -0.15
19 -0.15
2 -0.53
20 -0.15
21 0.15
22 0.15
23 0.15
24 0.15
25 0.15
26 0.15
27 0.45
28 0.45
3 -0.53
4 -0.57
5 -0.52
6 -0.52
7 0.91
8 0.09
9 0.4

> <PUBCHEM_EFFECTIVE_ROTOR_COUNT>
3

> <PUBCHEM_PHARMACOPHORE_FEATURES>
8
1 2 donor
1 3 donor
1 4 acceptor
1 5 acceptor
1 5 anion
1 6 acceptor
6 11 16 17 18 19 20 rings
6 8 10 12 13 14 15 rings

> <PUBCHEM_HEAVY_ATOM_COUNT>
20

> <PUBCHEM_ATOM_DEF_STEREO_COUNT>
0

> <PUBCHEM_ATOM_UDEF_STEREO_COUNT>
0

> <PUBCHEM_BOND_DEF_STEREO_COUNT>
0

> <PUBCHEM_BOND_UDEF_STEREO_COUNT>
0

> <PUBCHEM_ISOTOPIC_ATOM_COUNT>
0

> <PUBCHEM_COMPONENT_COUNT>
1

> <PUBCHEM_CACTVS_TAUTO_COUNT>
15

> <PUBCHEM_CONFORMER_ID>
003556AA00000002

> <PUBCHEM_MMFF94_ENERGY>
69.8046

> <PUBCHEM_FEATURE_SELFOVERLAP>
40.681

> <PUBCHEM_SHAPE_FINGERPRINT>
11543360 7 18336561477305067732
11582403 64 16186842414185611864
11640471 11 17386013810310010268
11796584 16 18197502818831254222
12173636 292 18048027472488010461
12236239 1 17458345212992459712
12553582 1 18262804089661809819
12714826 92 18272098205157597011
13296908 3 17703794704151338278
13544653 18 16988568991531765676
13583140 156 18129642137869381354
14386348 63 17775289360994315366
14420673 8 10518618141215601236
15961568 22 18263358265219247516
16752209 62 18260256461079888195
16945 1 18336537245036487857
18186145 218 18059297539612876448
19141452 34 17703513306890799399
192875 21 16732977652653098108
19862831 5 17385726915100175302
200 152 16949999240220627812
20645476 183 17530683199886466435
20645477 70 16702014241289286308
20871999 31 18411144618864902597
21065201 7 18339923723559190898
21639500 275 15574719118573234812
22094290 60 18408890641497341435
23402539 116 18260545623942342862
23526113 38 17703782579300425978
23557571 272 18272368655227857824
23559900 14 18270964540704107894
23598291 2 17386559151060951034
2748010 2 18121482808092803769
2838139 119 15503478346069298869
3082319 5 17676212385453233350
474 4 16153719708419462404
4921388 177 18341063929569476005
5352402 22 16988574536113304318
6049 1 18060700597875020824
7615 1 17530681000752401908
77492 1 17458345208718650008

> <PUBCHEM_SHAPE_MULTIPOLES>
369.99
8.7
1.98
1.57
2.39
0
-0.1
2.31
2.25
-3.41
0.17
2.03
-0.04
0.98

> <PUBCHEM_SHAPE_SELFOVERLAP>
816.019

> <PUBCHEM_SHAPE_VOLUME>
199.3

> <PUBCHEM_COORDINATE_TYPE>
2
5
10

$$$$
