133640
  -OEChem-10241303033D

 57 61  0     1  0  0  0  0  0999 V2000
    1.2727   -3.4944   -2.7335 Cl  0  0  0  0  0  0  0  0  0  0  0  0
    6.3748    0.8496   -0.3818 F   0  0  0  0  0  0  0  0  0  0  0  0
   -3.3096   -0.3729    0.6052 O   0  0  0  0  0  0  0  0  0  0  0  0
   -2.4001    1.7372    0.2018 O   0  0  0  0  0  0  0  0  0  0  0  0
   -6.7706    0.5889   -1.3869 O   0  0  0  0  0  0  0  0  0  0  0  0
   -4.9810    2.7131   -0.4079 O   0  0  0  0  0  0  0  0  0  0  0  0
   -6.7293   -1.6615    0.4520 O   0  0  0  0  0  0  0  0  0  0  0  0
   -4.8713   -3.4291    1.4032 O   0  0  0  0  0  0  0  0  0  0  0  0
   -2.7877   -2.8232    0.6837 O   0  0  0  0  0  0  0  0  0  0  0  0
    0.9013    1.7693   -0.0137 N   0  0  0  0  0  0  0  0  0  0  0  0
    0.0323    3.5188    1.0796 N   0  0  0  0  0  0  0  0  0  0  0  0
    3.9376    1.6920   -0.3434 N   0  0  0  0  0  0  0  0  0  0  0  0
   -5.9127    0.4930   -0.2490 C   0  0  2  0  0  0  0  0  0  0  0  0
   -4.6530    1.3261   -0.4876 C   0  0  2  0  0  0  0  0  0  0  0  0
   -5.5733   -0.9827   -0.0359 C   0  0  1  0  0  0  0  0  0  0  0  0
   -3.5831    1.0253    0.5624 C   0  0  1  0  0  0  0  0  0  0  0  0
   -4.4496   -1.1369    0.9815 C   0  0  1  0  0  0  0  0  0  0  0  0
   -1.3497    1.5074    1.1374 C   0  0  0  0  0  0  0  0  0  0  0  0
   -3.9331   -2.5390    1.0000 C   0  0  0  0  0  0  0  0  0  0  0  0
   -0.1695    2.2810    0.6855 C   0  0  0  0  0  0  0  0  0  0  0  0
    1.8137    2.7983   -0.1175 C   0  0  0  0  0  0  0  0  0  0  0  0
    1.0280    0.4810   -0.5871 C   0  0  0  0  0  0  0  0  0  0  0  0
    2.2863   -0.0977   -0.8456 C   0  0  0  0  0  0  0  0  0  0  0  0
    3.0553    2.6917   -0.9161 C   0  0  0  0  0  0  0  0  0  0  0  0
    1.2631    3.8473    0.5846 C   0  0  0  0  0  0  0  0  0  0  0  0
    3.5808    0.4525   -0.3212 C   0  0  0  0  0  0  0  0  0  0  0  0
   -0.1409   -0.2146   -0.9370 C   0  0  0  0  0  0  0  0  0  0  0  0
    2.3453   -1.3248   -1.5293 C   0  0  0  0  0  0  0  0  0  0  0  0
    4.5443   -0.4961    0.3128 C   0  0  0  0  0  0  0  0  0  0  0  0
   -0.0620   -1.4437   -1.5927 C   0  0  0  0  0  0  0  0  0  0  0  0
    1.1782   -1.9902   -1.9025 C   0  0  0  0  0  0  0  0  0  0  0  0
    5.9070   -0.2393    0.2452 C   0  0  0  0  0  0  0  0  0  0  0  0
    4.0620   -1.6241    0.9631 C   0  0  0  0  0  0  0  0  0  0  0  0
    6.8042   -1.1270    0.8391 C   0  0  0  0  0  0  0  0  0  0  0  0
    4.9594   -2.5119    1.5568 C   0  0  0  0  0  0  0  0  0  0  0  0
    6.3304   -2.2633    1.4948 C   0  0  0  0  0  0  0  0  0  0  0  0
   -6.4776    0.8933    0.6023 H   0  0  0  0  0  0  0  0  0  0  0  0
   -4.2597    1.1456   -1.4957 H   0  0  0  0  0  0  0  0  0  0  0  0
   -5.2969   -1.4467   -0.9917 H   0  0  0  0  0  0  0  0  0  0  0  0
   -3.9065    1.3767    1.5518 H   0  0  0  0  0  0  0  0  0  0  0  0
   -4.7553   -0.8725    2.0013 H   0  0  0  0  0  0  0  0  0  0  0  0
   -1.1345    0.4480    1.3046 H   0  0  0  0  0  0  0  0  0  0  0  0
   -1.6684    1.9055    2.1100 H   0  0  0  0  0  0  0  0  0  0  0  0
   -7.6119    0.1582   -1.1606 H   0  0  0  0  0  0  0  0  0  0  0  0
   -5.6788    2.8843   -1.0632 H   0  0  0  0  0  0  0  0  0  0  0  0
   -7.3982   -1.6502   -0.2528 H   0  0  0  0  0  0  0  0  0  0  0  0
    2.8357    2.4733   -1.9685 H   0  0  0  0  0  0  0  0  0  0  0  0
    3.5792    3.6546   -0.9108 H   0  0  0  0  0  0  0  0  0  0  0  0
    1.6827    4.8318    0.7326 H   0  0  0  0  0  0  0  0  0  0  0  0
   -1.1327    0.1979   -0.8766 H   0  0  0  0  0  0  0  0  0  0  0  0
   -4.5256   -4.3471    1.4133 H   0  0  0  0  0  0  0  0  0  0  0  0
    3.3062   -1.7720   -1.7775 H   0  0  0  0  0  0  0  0  0  0  0  0
   -0.9801   -1.9440   -1.8914 H   0  0  0  0  0  0  0  0  0  0  0  0
    3.0014   -1.8302    1.0705 H   0  0  0  0  0  0  0  0  0  0  0  0
    7.8717   -0.9330    0.7914 H   0  0  0  0  0  0  0  0  0  0  0  0
    4.5903   -3.3916    2.0760 H   0  0  0  0  0  0  0  0  0  0  0  0
    7.0290   -2.9532    1.9592 H   0  0  0  0  0  0  0  0  0  0  0  0
  1 31  1  0  0  0  0
  2 32  1  0  0  0  0
  3 16  1  0  0  0  0
  3 17  1  0  0  0  0
  4 16  1  0  0  0  0
  4 18  1  0  0  0  0
  5 13  1  0  0  0  0
  5 44  1  0  0  0  0
  6 14  1  0  0  0  0
  6 45  1  0  0  0  0
  7 15  1  0  0  0  0
  7 46  1  0  0  0  0
  8 19  1  0  0  0  0
  8 51  1  0  0  0  0
  9 19  2  0  0  0  0
 10 20  1  0  0  0  0
 10 21  1  0  0  0  0
 10 22  1  0  0  0  0
 11 20  2  0  0  0  0
 11 25  1  0  0  0  0
 12 24  1  0  0  0  0
 12 26  2  0  0  0  0
 13 14  1  0  0  0  0
 13 15  1  0  0  0  0
 13 37  1  0  0  0  0
 14 16  1  0  0  0  0
 14 38  1  0  0  0  0
 15 17  1  0  0  0  0
 15 39  1  0  0  0  0
 16 40  1  0  0  0  0
 17 19  1  0  0  0  0
 17 41  1  0  0  0  0
 18 20  1  0  0  0  0
 18 42  1  0  0  0  0
 18 43  1  0  0  0  0
 21 24  1  0  0  0  0
 21 25  2  0  0  0  0
 22 23  2  0  0  0  0
 22 27  1  0  0  0  0
 23 26  1  0  0  0  0
 23 28  1  0  0  0  0
 24 47  1  0  0  0  0
 24 48  1  0  0  0  0
 25 49  1  0  0  0  0
 26 29  1  0  0  0  0
 27 30  2  0  0  0  0
 27 50  1  0  0  0  0
 28 31  2  0  0  0  0
 28 52  1  0  0  0  0
 29 32  1  0  0  0  0
 29 33  2  0  0  0  0
 30 31  1  0  0  0  0
 30 53  1  0  0  0  0
 32 34  2  0  0  0  0
 33 35  1  0  0  0  0
 33 54  1  0  0  0  0
 34 36  1  0  0  0  0
 34 55  1  0  0  0  0
 35 36  2  0  0  0  0
 35 56  1  0  0  0  0
 36 57  1  0  0  0  0
M  END
> <PUBCHEM_COMPOUND_CID>
133640

> <PUBCHEM_CONFORMER_RMSD>
1

> <PUBCHEM_CONFORMER_DIVERSEORDER>
1
45
63
9
2
7
8
70
17
3
50
27
43
74
41
6
23
28
68
16
39
37
12
25
67
75
32
69
24
18
30
56
31
15
59
58
46
5
49
53
11
44
34
73
66
42
38
71
60
10
47
51
57
62
52
48
22
72
13
26
65
35
61
55
33
21
64
14
29
40
4
54
20
36
19

> <PUBCHEM_MMFF94_PARTIAL_CHARGES>
48
1 -0.18
10 0.33
11 -0.57
12 -0.7
13 0.28
14 0.28
15 0.28
16 0.56
17 0.34
18 0.46
19 0.66
2 -0.19
20 0.01
21 -0.33
22 -0.02
23 0.09
24 0.43
25 0.08
26 0.28
27 -0.15
28 -0.15
29 0.09
3 -0.56
30 -0.15
31 0.18
32 0.19
33 -0.15
34 -0.15
35 -0.15
36 -0.15
4 -0.56
44 0.4
45 0.4
46 0.4
49 0.15
5 -0.68
50 0.15
51 0.5
52 0.15
53 0.15
54 0.15
55 0.15
56 0.15
57 0.15
6 -0.68
7 -0.68
8 -0.65
9 -0.57

> <PUBCHEM_EFFECTIVE_ROTOR_COUNT>
6.4

> <PUBCHEM_PHARMACOPHORE_FEATURES>
18
1 12 acceptor
1 3 acceptor
1 4 acceptor
1 5 acceptor
1 5 donor
1 6 acceptor
1 6 donor
1 7 acceptor
1 7 donor
1 8 acceptor
1 9 acceptor
3 10 11 20 cation
3 8 9 19 anion
5 10 11 20 21 25 rings
6 22 23 27 28 30 31 rings
6 29 32 33 34 35 36 rings
6 3 13 14 15 16 17 rings
7 10 12 21 22 23 24 26 rings

> <PUBCHEM_HEAVY_ATOM_COUNT>
36

> <PUBCHEM_ATOM_DEF_STEREO_COUNT>
5

> <PUBCHEM_ATOM_UDEF_STEREO_COUNT>
0

> <PUBCHEM_BOND_DEF_STEREO_COUNT>
0

> <PUBCHEM_BOND_UDEF_STEREO_COUNT>
0

> <PUBCHEM_ISOTOPIC_ATOM_COUNT>
0

> <PUBCHEM_COMPONENT_COUNT>
1

> <PUBCHEM_CACTVS_TAUTO_COUNT>
1

> <PUBCHEM_CONFORMER_ID>
00020A0800000001

> <PUBCHEM_MMFF94_ENERGY>
118.841

> <PUBCHEM_FEATURE_SELFOVERLAP>
91.538

> <PUBCHEM_SHAPE_FINGERPRINT>
10674148 151 14490752296123097430
10675989 125 17255962269961280405
10939801 23 18270677684281445200
11135609 99 18334853888698046722
11136131 41 17834382798266282872
11146851 88 18341608213969848183
11445158 3 18337386140674498956
11456790 92 18339935853148352481
11719270 70 18202279169607093062
11828532 37 17897737698358402587
11963148 33 17617941774165426691
12106331 60 18272935981963892132
12128747 34 17967812786103370939
12202916 173 18342165628053459575
12422481 6 17774720875218485294
12838863 1 18272073981927507535
131258 38 18040985272790721834
13782708 43 18040152920448713987
140371 6 18199481969140304073
14068700 675 18040991788128918040
14725015 67 18410008862873337603
14955137 171 18272374174608726556
15064986 96 17772743885131266454
15274700 208 16629380632724945920
15475509 8 13551756145903041772
15815584 197 18059027089553880583
16728300 4 18263914458835313954
19319366 153 17759531354072596236
20028762 73 17704069607685701220
20567600 70 18409166619089947960
21033648 29 16988567866155674834
21223535 225 14418122994477381887
21987440 362 16088106115693081341
22223350 30 17415545765151428098
22889206 1 18127395955999488016
23559900 14 18335133250376930425
23572383 38 18270121206321447631
255183 313 17489288782034983262
373842 8 18341050705634840030
3886686 26 16969696690944427834
439807 62 18187370973752213283
469060 322 17773854476797550964
5104073 3 18343310292139727241
563151 248 16415469429521846788
613672 6 18271534104437705567
77296 10 18114183059478843435
9896288 288 17982164518897837656

> <PUBCHEM_SHAPE_MULTIPOLES>
679.43
16.27
4.36
1.66
6.18
0.96
0.57
-7.22
-4.81
0.25
-0.24
-0.75
-1.63
0.27

> <PUBCHEM_SHAPE_SELFOVERLAP>
1492.623

> <PUBCHEM_SHAPE_VOLUME>
366.1

> <PUBCHEM_COORDINATE_TYPE>
2
5
10

$$$$
