191112
  -OEChem-10241303043D

 39 41  0     1  0  0  0  0  0999 V2000
    2.4833   -1.9285    1.3691 S   0  0  0  0  0  0  0  0  0  0  0  0
    2.0731    2.2141   -0.3670 O   0  0  0  0  0  0  0  0  0  0  0  0
    4.3036   -2.6455   -0.4187 O   0  0  0  0  0  0  0  0  0  0  0  0
   -0.9570    1.9976    0.3854 O   0  0  0  0  0  0  0  0  0  0  0  0
   -3.0832    0.6262   -0.5450 O   0  0  0  0  0  0  0  0  0  0  0  0
    3.2470    0.5119    0.7747 N   0  0  0  0  0  0  0  0  0  0  0  0
    0.1454    0.0617    1.0469 N   0  0  0  0  0  0  0  0  0  0  0  0
    2.5714   -0.1797    1.8711 C   0  0  1  0  0  0  0  0  0  0  0  0
    1.3467    0.7058    1.5728 C   0  0  1  0  0  0  0  0  0  0  0  0
    2.2319    1.3745    0.4899 C   0  0  0  0  0  0  0  0  0  0  0  0
    3.9297   -0.2765   -0.1047 C   0  0  0  0  0  0  0  0  0  0  0  0
    3.7354   -1.7256    0.1430 C   0  0  0  0  0  0  0  0  0  0  0  0
    4.6306    0.1668   -1.1517 C   0  0  0  0  0  0  0  0  0  0  0  0
   -0.9168    0.7747    0.4911 C   0  0  0  0  0  0  0  0  0  0  0  0
    4.8345    1.6326   -1.4135 C   0  0  0  0  0  0  0  0  0  0  0  0
    5.2645   -0.7690   -2.1423 C   0  0  0  0  0  0  0  0  0  0  0  0
   -2.0351   -0.1305    0.0223 C   0  0  0  0  0  0  0  0  0  0  0  0
   -4.3548    0.1137   -0.4411 C   0  0  0  0  0  0  0  0  0  0  0  0
   -4.5364   -1.2617   -0.4009 C   0  0  0  0  0  0  0  0  0  0  0  0
   -5.4377    0.9798   -0.3786 C   0  0  0  0  0  0  0  0  0  0  0  0
   -5.8265   -1.7815   -0.2962 C   0  0  0  0  0  0  0  0  0  0  0  0
   -6.7278    0.4599   -0.2739 C   0  0  0  0  0  0  0  0  0  0  0  0
   -6.9221   -0.9208   -0.2327 C   0  0  0  0  0  0  0  0  0  0  0  0
    3.0512    0.0008    2.8386 H   0  0  0  0  0  0  0  0  0  0  0  0
    1.1018    1.3891    2.3950 H   0  0  0  0  0  0  0  0  0  0  0  0
    0.0649   -0.9519    1.0826 H   0  0  0  0  0  0  0  0  0  0  0  0
    5.8756    1.8171   -1.7031 H   0  0  0  0  0  0  0  0  0  0  0  0
    4.1914    1.9659   -2.2340 H   0  0  0  0  0  0  0  0  0  0  0  0
    4.6559    2.2645   -0.5393 H   0  0  0  0  0  0  0  0  0  0  0  0
    5.6663   -0.2113   -2.9964 H   0  0  0  0  0  0  0  0  0  0  0  0
    6.1046   -1.3091   -1.6944 H   0  0  0  0  0  0  0  0  0  0  0  0
    4.5376   -1.4715   -2.5625 H   0  0  0  0  0  0  0  0  0  0  0  0
   -1.6317   -0.8190   -0.7290 H   0  0  0  0  0  0  0  0  0  0  0  0
   -2.3630   -0.6911    0.9079 H   0  0  0  0  0  0  0  0  0  0  0  0
   -3.7123   -1.9644   -0.4758 H   0  0  0  0  0  0  0  0  0  0  0  0
   -5.2896    2.0554   -0.4105 H   0  0  0  0  0  0  0  0  0  0  0  0
   -5.9789   -2.8566   -0.2707 H   0  0  0  0  0  0  0  0  0  0  0  0
   -7.5810    1.1300   -0.2248 H   0  0  0  0  0  0  0  0  0  0  0  0
   -7.9268   -1.3255   -0.1528 H   0  0  0  0  0  0  0  0  0  0  0  0
  1  8  1  0  0  0  0
  1 12  1  0  0  0  0
  2 10  2  0  0  0  0
  3 12  2  0  0  0  0
  4 14  2  0  0  0  0
  5 17  1  0  0  0  0
  5 18  1  0  0  0  0
  6  8  1  0  0  0  0
  6 10  1  0  0  0  0
  6 11  1  0  0  0  0
  7  9  1  0  0  0  0
  7 14  1  0  0  0  0
  7 26  1  0  0  0  0
  8  9  1  0  0  0  0
  8 24  1  0  0  0  0
  9 10  1  0  0  0  0
  9 25  1  0  0  0  0
 11 12  1  0  0  0  0
 11 13  2  0  0  0  0
 13 15  1  0  0  0  0
 13 16  1  0  0  0  0
 14 17  1  0  0  0  0
 15 27  1  0  0  0  0
 15 28  1  0  0  0  0
 15 29  1  0  0  0  0
 16 30  1  0  0  0  0
 16 31  1  0  0  0  0
 16 32  1  0  0  0  0
 17 33  1  0  0  0  0
 17 34  1  0  0  0  0
 18 19  2  0  0  0  0
 18 20  1  0  0  0  0
 19 21  1  0  0  0  0
 19 35  1  0  0  0  0
 20 22  2  0  0  0  0
 20 36  1  0  0  0  0
 21 23  2  0  0  0  0
 21 37  1  0  0  0  0
 22 23  1  0  0  0  0
 22 38  1  0  0  0  0
 23 39  1  0  0  0  0
M  END
> <PUBCHEM_COMPOUND_CID>
191112

> <PUBCHEM_CONFORMER_RMSD>
0.8

> <PUBCHEM_CONFORMER_DIVERSEORDER>
1
32
13
4
34
10
21
2
28
22
26
29
37
42
6
19
11
15
25
5
38
12
18
30
33
9
8
41
36
16
40
7
3
23
31
14
17
35
39
20
27
24

> <PUBCHEM_MMFF94_PARTIAL_CHARGES>
29
1 -0.36
10 0.58
11 0.12
12 0.7
13 -0.28
14 0.57
15 0.14
16 0.14
17 0.34
18 0.08
19 -0.15
2 -0.57
20 -0.15
21 -0.15
22 -0.15
23 -0.15
26 0.37
3 -0.57
35 0.15
36 0.15
37 0.15
38 0.15
39 0.15
4 -0.57
5 -0.36
6 -0.39
7 -0.65
8 0.44
9 0.28

> <PUBCHEM_EFFECTIVE_ROTOR_COUNT>
5.4

> <PUBCHEM_PHARMACOPHORE_FEATURES>
7
1 2 acceptor
1 4 acceptor
1 5 acceptor
1 7 donor
3 13 15 16 hydrophobe
6 18 19 20 21 22 23 rings
7 1 6 8 9 10 11 12 rings

> <PUBCHEM_HEAVY_ATOM_COUNT>
23

> <PUBCHEM_ATOM_DEF_STEREO_COUNT>
2

> <PUBCHEM_ATOM_UDEF_STEREO_COUNT>
0

> <PUBCHEM_BOND_DEF_STEREO_COUNT>
0

> <PUBCHEM_BOND_UDEF_STEREO_COUNT>
0

> <PUBCHEM_ISOTOPIC_ATOM_COUNT>
0

> <PUBCHEM_COMPONENT_COUNT>
1

> <PUBCHEM_CACTVS_TAUTO_COUNT>
2

> <PUBCHEM_CONFORMER_ID>
0002EA8800000001

> <PUBCHEM_MMFF94_ENERGY>
76.334

> <PUBCHEM_FEATURE_SELFOVERLAP>
35.528

> <PUBCHEM_SHAPE_FINGERPRINT>
10670039 82 13840543987441050334
10693767 8 18263930934952470462
11128504 68 17313101943176911347
11724838 91 7853564691242663697
11796584 16 17632576067444809719
12730499 353 16950288394567378248
13150687 139 18187941620687709028
13533116 47 15339117948442486842
13685833 64 16988847168121279694
13782708 43 16629670899457681655
13955234 65 16415186936669502720
14211702 104 14979376492104964597
14251758 9 16702300144572392973
14528608 73 17676204688924521429
14681490 219 17749111101433928645
15183329 4 18413390917484779993
15475509 35 15195009276676142702
15537594 2 18202278134689085031
15664445 248 18337672022519905532
15799311 1 18339657693501511851
17844677 252 18412543224095475361
20567600 234 7853565808182125807
20645477 70 18409162220901005392
21150785 3 16153708765312303611
21304303 94 18335425651623958546
21315764 268 10807935951330514611
21521239 73 18341629088302068118
21641784 216 15647331884310253437
21859007 373 13398088431260268931
220451 1 18333731313148203571
2215653 11 17988918968845185063
22950370 63 18411134736757006185
23016692 55 18201722842609208301
2303208 19 18059856199305380147
23522609 53 18267611060078146969
23559900 14 18130502033013361089
239999 70 18201433718533250400
2916195 48 11891330963546413277
3004659 81 18410572885650379394
3472631 163 14851900191658650918
34797466 226 17458067071131962639
4340502 62 17560507500408849952
46194498 28 18113336422941494692
465052 167 17917993879772596255
653340 110 8934185644218562391
8509985 295 10592042466259581970
960060 61 18260267438546661834
9841814 1 16415190208975633392

> <PUBCHEM_SHAPE_MULTIPOLES>
443.74
17.09
2.1
1.48
25.26
0.45
-0.01
3.76
-7.41
-1.58
-0.07
-2.59
0.11
-0.51

> <PUBCHEM_SHAPE_SELFOVERLAP>
938.23

> <PUBCHEM_SHAPE_VOLUME>
250

> <PUBCHEM_COORDINATE_TYPE>
2
5
10

$$$$
