108137
  -OEChem-10241303083D

 36 38  0     0  0  0  0  0  0999 V2000
    1.3413    0.5310    0.5255 O   0  0  0  0  0  0  0  0  0  0  0  0
   -2.2804    0.6196    0.3441 N   0  0  0  0  0  0  0  0  0  0  0  0
   -1.0095   -1.1821    0.7208 N   0  0  0  0  0  0  0  0  0  0  0  0
   -5.4380   -0.6670   -2.0803 N   0  0  0  0  0  0  0  0  0  0  0  0
   -3.1402   -0.4386    0.4912 C   0  0  0  0  0  0  0  0  0  0  0  0
   -0.9898    0.1160    0.4925 C   0  0  0  0  0  0  0  0  0  0  0  0
   -2.3364   -1.5300    0.7207 C   0  0  0  0  0  0  0  0  0  0  0  0
    0.0795    1.0511    0.3758 C   0  0  0  0  0  0  0  0  0  0  0  0
   -2.5616    1.9602    0.0940 C   0  0  0  0  0  0  0  0  0  0  0  0
   -4.6084   -0.3184    0.4013 C   0  0  0  0  0  0  0  0  0  0  0  0
   -0.1806    2.3517    0.1333 C   0  0  0  0  0  0  0  0  0  0  0  0
   -1.5457    2.8320   -0.0140 C   0  0  0  0  0  0  0  0  0  0  0  0
   -2.7352   -2.9282    0.9497 C   0  0  0  0  0  0  0  0  0  0  0  0
    2.1192    0.7397   -0.6399 C   0  0  0  0  0  0  0  0  0  0  0  0
    3.4747    0.1281   -0.4400 C   0  0  0  0  0  0  0  0  0  0  0  0
    4.5000    0.8907    0.1083 C   0  0  0  0  0  0  0  0  0  0  0  0
    3.6933   -1.1958   -0.8045 C   0  0  0  0  0  0  0  0  0  0  0  0
   -5.0825   -0.5126   -0.9865 C   0  0  0  0  0  0  0  0  0  0  0  0
    5.7600    0.3221    0.2945 C   0  0  0  0  0  0  0  0  0  0  0  0
    4.9534   -1.7644   -0.6181 C   0  0  0  0  0  0  0  0  0  0  0  0
    5.9867   -1.0053   -0.0686 C   0  0  0  0  0  0  0  0  0  0  0  0
   -3.5936    2.2693   -0.0119 H   0  0  0  0  0  0  0  0  0  0  0  0
   -4.9611    0.6443    0.7864 H   0  0  0  0  0  0  0  0  0  0  0  0
   -5.0763   -1.0773    1.0407 H   0  0  0  0  0  0  0  0  0  0  0  0
    0.6089    3.0915    0.0573 H   0  0  0  0  0  0  0  0  0  0  0  0
   -1.7133    3.8843   -0.2088 H   0  0  0  0  0  0  0  0  0  0  0  0
   -3.3229   -3.0157    1.8688 H   0  0  0  0  0  0  0  0  0  0  0  0
   -3.3391   -3.3006    0.1162 H   0  0  0  0  0  0  0  0  0  0  0  0
   -1.8595   -3.5777    1.0464 H   0  0  0  0  0  0  0  0  0  0  0  0
    2.2476    1.8078   -0.8582 H   0  0  0  0  0  0  0  0  0  0  0  0
    1.6333    0.2832   -1.5135 H   0  0  0  0  0  0  0  0  0  0  0  0
    4.3340    1.9248    0.3973 H   0  0  0  0  0  0  0  0  0  0  0  0
    2.8949   -1.7969   -1.2309 H   0  0  0  0  0  0  0  0  0  0  0  0
    6.5645    0.9128    0.7230 H   0  0  0  0  0  0  0  0  0  0  0  0
    5.1299   -2.7983   -0.9001 H   0  0  0  0  0  0  0  0  0  0  0  0
    6.9678   -1.4481    0.0768 H   0  0  0  0  0  0  0  0  0  0  0  0
  1  8  1  0  0  0  0
  1 14  1  0  0  0  0
  2  5  1  0  0  0  0
  2  6  1  0  0  0  0
  2  9  1  0  0  0  0
  3  6  2  0  0  0  0
  3  7  1  0  0  0  0
  4 18  3  0  0  0  0
  5  7  2  0  0  0  0
  5 10  1  0  0  0  0
  6  8  1  0  0  0  0
  7 13  1  0  0  0  0
  8 11  2  0  0  0  0
  9 12  2  0  0  0  0
  9 22  1  0  0  0  0
 10 18  1  0  0  0  0
 10 23  1  0  0  0  0
 10 24  1  0  0  0  0
 11 12  1  0  0  0  0
 11 25  1  0  0  0  0
 12 26  1  0  0  0  0
 13 27  1  0  0  0  0
 13 28  1  0  0  0  0
 13 29  1  0  0  0  0
 14 15  1  0  0  0  0
 14 30  1  0  0  0  0
 14 31  1  0  0  0  0
 15 16  2  0  0  0  0
 15 17  1  0  0  0  0
 16 19  1  0  0  0  0
 16 32  1  0  0  0  0
 17 20  2  0  0  0  0
 17 33  1  0  0  0  0
 19 21  2  0  0  0  0
 19 34  1  0  0  0  0
 20 21  1  0  0  0  0
 20 35  1  0  0  0  0
 21 36  1  0  0  0  0
M  END
> <PUBCHEM_COMPOUND_CID>
108137

> <PUBCHEM_CONFORMER_RMSD>
0.6

> <PUBCHEM_CONFORMER_DIVERSEORDER>
1
129
164
21
65
160
41
56
88
89
81
103
130
152
162
49
138
79
154
104
75
136
66
33
24
163
42
132
80
118
28
108
13
94
121
20
145
91
119
40
140
133
97
67
77
128
92
127
113
46
148
29
165
95
100
63
117
72
2
110
23
141
8
111
102
125
150
147
31
161
5
57
87
120
143
115
122
30
68
123
11
106
135
60
146
76
109
73
16
43
45
3
84
116
156
149
50
90
126
59
107
14
47
83
69
155
39
12
6
58
34
139
98
105
157
15
37
62
64
158
7
22
55
99
153
52
61
151
54
137
93
48
78
134
85
4
36
35
96
114
70
86
159
9
101
124
51
112
10
38
26
74
71
44
82
53
18
131
27
32
25
17
142
144
19

> <PUBCHEM_MMFF94_PARTIAL_CHARGES>
29
1 -0.36
10 0.38
11 -0.15
12 -0.15
13 0.18
14 0.42
15 -0.14
16 -0.15
17 -0.15
18 0.36
19 -0.15
2 0.33
20 -0.15
21 -0.15
22 0.15
25 0.15
26 0.15
3 -0.57
32 0.15
33 0.15
34 0.15
35 0.15
36 0.15
4 -0.56
5 -0.33
6 0.14
7 0.05
8 0.12
9 -0.18

> <PUBCHEM_EFFECTIVE_ROTOR_COUNT>
4

> <PUBCHEM_PHARMACOPHORE_FEATURES>
6
1 1 acceptor
1 4 acceptor
3 2 3 6 cation
5 2 3 5 6 7 rings
6 15 16 17 19 20 21 rings
6 2 6 8 9 11 12 rings

> <PUBCHEM_HEAVY_ATOM_COUNT>
21

> <PUBCHEM_ATOM_DEF_STEREO_COUNT>
0

> <PUBCHEM_ATOM_UDEF_STEREO_COUNT>
0

> <PUBCHEM_BOND_DEF_STEREO_COUNT>
0

> <PUBCHEM_BOND_UDEF_STEREO_COUNT>
0

> <PUBCHEM_ISOTOPIC_ATOM_COUNT>
0

> <PUBCHEM_COMPONENT_COUNT>
1

> <PUBCHEM_CACTVS_TAUTO_COUNT>
1

> <PUBCHEM_CONFORMER_ID>
0001A66900000001

> <PUBCHEM_MMFF94_ENERGY>
46.4116

> <PUBCHEM_FEATURE_SELFOVERLAP>
30.56

> <PUBCHEM_SHAPE_FINGERPRINT>
10447042 23 18412822495663954686
10693767 8 18200294611935022967
10803635 8 17676201386036953827
10835480 77 18263640822052456300
11315181 36 17894919538112221584
12236239 1 17240765086212894288
12555020 224 18408037429534016623
12596602 18 15051733097022906110
12760667 363 18342461421717547866
12892183 10 13110699232505452909
13544653 18 18131640005756696640
14508225 48 18335697252201979997
14790565 3 17547578080732120625
15042514 8 18334591152309818257
15163728 17 15793122681278988895
15183329 4 17458336416783289341
15352361 1 18410580612660613290
15880784 105 17060624382383651598
16752209 62 18260820463147329401
17857418 61 18412262818290983210
19141452 34 18272661176902456971
19958102 18 18040990687868710454
200 152 17846780715154783707
20374829 77 18409450310074734227
20403669 9 18341903973923265854
21236236 1 18341897346968407513
21267235 1 18335152989450030242
21637258 2 16486959731589608429
23198884 109 14345796054428968853
23402539 116 18412544293288896965
23557571 272 18342746182856202680
23559900 14 18336546144003321672
2838139 119 15502361310726989631
2871803 45 18408042892790212034
3004659 81 18040719195018019806
3009799 131 18335411379320559213
335352 9 18408608072084802581
339767 52 18335134311075317570
4015057 19 18341889757550231545
4214541 1 18337678512383814232
5104073 3 18342460288679684288
5283173 99 18261947462265574237
559249 180 18114743703525385258
56616090 284 18410285935276344175
5924683 9 18202003196478395185
59755656 215 18334858286322649022
67856867 119 18042977647979348228
9709674 26 18269004106950216030

> <PUBCHEM_SHAPE_MULTIPOLES>
411.36
13.21
2.55
1.04
10.78
0.29
-0.39
-5.48
-3.4
-1.49
0.39
-1.17
-0.36
0.54

> <PUBCHEM_SHAPE_SELFOVERLAP>
893.72

> <PUBCHEM_SHAPE_VOLUME>
223.8

> <PUBCHEM_COORDINATE_TYPE>
2
5
10

$$$$
