4172142
  -OEChem-10241303073D

 50 53  0     0  0  0  0  0  0999 V2000
   -3.2974    2.8275   -0.5294 O   0  0  0  0  0  0  0  0  0  0  0  0
   -3.1961   -2.7698   -0.9570 O   0  0  0  0  0  0  0  0  0  0  0  0
    1.8753    1.2689    0.2370 N   0  0  0  0  0  0  0  0  0  0  0  0
   -1.5245   -2.0533    0.4867 N   0  0  0  0  0  0  0  0  0  0  0  0
    1.8649   -0.0142   -0.2502 C   0  0  0  0  0  0  0  0  0  0  0  0
    0.5991   -0.2906   -0.6864 C   0  0  0  0  0  0  0  0  0  0  0  0
    3.1818    1.6834    0.7367 C   0  0  0  0  0  0  0  0  0  0  0  0
    0.6587    1.8586    0.1414 C   0  0  0  0  0  0  0  0  0  0  0  0
    3.1787   -0.5705   -0.1160 C   0  0  0  0  0  0  0  0  0  0  0  0
   -0.1811    0.8933   -0.4432 C   0  0  0  0  0  0  0  0  0  0  0  0
    3.9880    0.4283    0.4731 C   0  0  0  0  0  0  0  0  0  0  0  0
    0.1218   -1.5508   -1.2876 C   0  0  0  0  0  0  0  0  0  0  0  0
    0.2088    3.1323    0.5049 C   0  0  0  0  0  0  0  0  0  0  0  0
   -1.5316    1.2286   -0.6701 C   0  0  0  0  0  0  0  0  0  0  0  0
    3.6768   -1.8110   -0.4543 C   0  0  0  0  0  0  0  0  0  0  0  0
   -0.4156   -2.5706   -0.2692 C   0  0  0  0  0  0  0  0  0  0  0  0
    5.3239    0.1908    0.7329 C   0  0  0  0  0  0  0  0  0  0  0  0
   -1.9925    2.5004   -0.3103 C   0  0  0  0  0  0  0  0  0  0  0  0
   -1.1348    3.4349    0.2672 C   0  0  0  0  0  0  0  0  0  0  0  0
    5.0277   -2.0523   -0.1918 C   0  0  0  0  0  0  0  0  0  0  0  0
    5.8418   -1.0633    0.3948 C   0  0  0  0  0  0  0  0  0  0  0  0
   -2.8432   -2.1993    0.0717 C   0  0  0  0  0  0  0  0  0  0  0  0
   -3.8161   -1.5655    1.0498 C   0  0  0  0  0  0  0  0  0  0  0  0
   -5.2687   -1.7174    0.6080 C   0  0  0  0  0  0  0  0  0  0  0  0
   -4.1243    1.8290   -1.1231 C   0  0  0  0  0  0  0  0  0  0  0  0
   -6.2216   -1.0476    1.5845 C   0  0  0  0  0  0  0  0  0  0  0  0
    3.0890    1.9054    1.8022 H   0  0  0  0  0  0  0  0  0  0  0  0
    3.5245    2.5337    0.1427 H   0  0  0  0  0  0  0  0  0  0  0  0
    0.9286   -2.0213   -1.8617 H   0  0  0  0  0  0  0  0  0  0  0  0
   -0.6657   -1.3293   -2.0196 H   0  0  0  0  0  0  0  0  0  0  0  0
    0.8740    3.8618    0.9546 H   0  0  0  0  0  0  0  0  0  0  0  0
   -2.1553    0.4720   -1.1288 H   0  0  0  0  0  0  0  0  0  0  0  0
   -0.7253   -3.4825   -0.7910 H   0  0  0  0  0  0  0  0  0  0  0  0
    0.3658   -2.8404    0.4497 H   0  0  0  0  0  0  0  0  0  0  0  0
    3.0595   -2.5801   -0.9030 H   0  0  0  0  0  0  0  0  0  0  0  0
    5.9553    0.9478    1.1842 H   0  0  0  0  0  0  0  0  0  0  0  0
   -1.5103    4.4184    0.5403 H   0  0  0  0  0  0  0  0  0  0  0  0
    5.4595   -3.0179   -0.4425 H   0  0  0  0  0  0  0  0  0  0  0  0
    6.8894   -1.2809    0.5871 H   0  0  0  0  0  0  0  0  0  0  0  0
   -1.3261   -1.5586    1.3517 H   0  0  0  0  0  0  0  0  0  0  0  0
   -3.6751   -2.0464    2.0256 H   0  0  0  0  0  0  0  0  0  0  0  0
   -3.5567   -0.5077    1.1642 H   0  0  0  0  0  0  0  0  0  0  0  0
   -5.5237   -2.7806    0.5248 H   0  0  0  0  0  0  0  0  0  0  0  0
   -5.4068   -1.2814   -0.3884 H   0  0  0  0  0  0  0  0  0  0  0  0
   -3.7826    1.5660   -2.1299 H   0  0  0  0  0  0  0  0  0  0  0  0
   -5.1243    2.2619   -1.2313 H   0  0  0  0  0  0  0  0  0  0  0  0
   -4.2275    0.9555   -0.4766 H   0  0  0  0  0  0  0  0  0  0  0  0
   -6.1324   -1.4865    2.5833 H   0  0  0  0  0  0  0  0  0  0  0  0
   -6.0151    0.0249    1.6601 H   0  0  0  0  0  0  0  0  0  0  0  0
   -7.2563   -1.1714    1.2499 H   0  0  0  0  0  0  0  0  0  0  0  0
  1 18  1  0  0  0  0
  1 25  1  0  0  0  0
  2 22  2  0  0  0  0
  3  5  1  0  0  0  0
  3  7  1  0  0  0  0
  3  8  1  0  0  0  0
  4 16  1  0  0  0  0
  4 22  1  0  0  0  0
  4 40  1  0  0  0  0
  5  6  2  0  0  0  0
  5  9  1  0  0  0  0
  6 10  1  0  0  0  0
  6 12  1  0  0  0  0
  7 11  1  0  0  0  0
  7 27  1  0  0  0  0
  7 28  1  0  0  0  0
  8 10  2  0  0  0  0
  8 13  1  0  0  0  0
  9 11  1  0  0  0  0
  9 15  2  0  0  0  0
 10 14  1  0  0  0  0
 11 17  2  0  0  0  0
 12 16  1  0  0  0  0
 12 29  1  0  0  0  0
 12 30  1  0  0  0  0
 13 19  2  0  0  0  0
 13 31  1  0  0  0  0
 14 18  2  0  0  0  0
 14 32  1  0  0  0  0
 15 20  1  0  0  0  0
 15 35  1  0  0  0  0
 16 33  1  0  0  0  0
 16 34  1  0  0  0  0
 17 21  1  0  0  0  0
 17 36  1  0  0  0  0
 18 19  1  0  0  0  0
 19 37  1  0  0  0  0
 20 21  2  0  0  0  0
 20 38  1  0  0  0  0
 21 39  1  0  0  0  0
 22 23  1  0  0  0  0
 23 24  1  0  0  0  0
 23 41  1  0  0  0  0
 23 42  1  0  0  0  0
 24 26  1  0  0  0  0
 24 43  1  0  0  0  0
 24 44  1  0  0  0  0
 25 45  1  0  0  0  0
 25 46  1  0  0  0  0
 25 47  1  0  0  0  0
 26 48  1  0  0  0  0
 26 49  1  0  0  0  0
 26 50  1  0  0  0  0
M  END
> <PUBCHEM_COMPOUND_CID>
4172142

> <PUBCHEM_CONFORMER_RMSD>
0.8

> <PUBCHEM_CONFORMER_DIVERSEORDER>
1
17
3
13
31
53
42
12
16
47
37
22
14
7
2
5
18
15
43
30
9
23
8
52
36
24
10
55
6
11
27
4
46
40
21
29
25
51
44
41
48
54
32
45
50
38
39
49
20
33
35
28
26
19
34

> <PUBCHEM_MMFF94_PARTIAL_CHARGES>
31
1 -0.36
11 -0.14
12 0.18
13 -0.15
14 -0.15
15 -0.15
16 0.3
17 -0.15
18 0.08
19 -0.15
2 -0.57
20 -0.15
21 -0.15
22 0.57
23 0.06
25 0.28
3 0.05
31 0.15
32 0.15
35 0.15
36 0.15
37 0.15
38 0.15
39 0.15
4 -0.73
40 0.37
5 -0.2
6 -0.18
7 0.4
8 -0.15
9 0.05

> <PUBCHEM_EFFECTIVE_ROTOR_COUNT>
7.2

> <PUBCHEM_PHARMACOPHORE_FEATURES>
9
1 1 acceptor
1 2 acceptor
1 26 hydrophobe
1 3 cation
1 4 donor
5 3 5 6 8 10 rings
5 3 5 7 9 11 rings
6 8 10 13 14 18 19 rings
6 9 11 15 17 20 21 rings

> <PUBCHEM_HEAVY_ATOM_COUNT>
26

> <PUBCHEM_ATOM_DEF_STEREO_COUNT>
0

> <PUBCHEM_ATOM_UDEF_STEREO_COUNT>
0

> <PUBCHEM_BOND_DEF_STEREO_COUNT>
0

> <PUBCHEM_BOND_UDEF_STEREO_COUNT>
0

> <PUBCHEM_ISOTOPIC_ATOM_COUNT>
0

> <PUBCHEM_COMPONENT_COUNT>
1

> <PUBCHEM_CACTVS_TAUTO_COUNT>
2

> <PUBCHEM_CONFORMER_ID>
003FA96E00000001

> <PUBCHEM_MMFF94_ENERGY>
66.3026

> <PUBCHEM_FEATURE_SELFOVERLAP>
46.116

> <PUBCHEM_SHAPE_FINGERPRINT>
10688039 33 18187086191376137397
108634 29 18198625441245039894
11135609 12 18334858337550987889
11578080 2 16412908761292990290
12293681 25 17701272325582612822
12422481 6 18272663346093134515
12553582 1 18196646526663377110
12633257 1 18198916975335629827
12645989 146 18341895242434822575
12788726 201 18262252100469929454
13140716 1 18342177734906929072
13402501 40 18409730656318999677
14790565 3 17185035510083194108
15042514 8 18409730616968221608
15475509 84 17917724503766745209
15885798 251 18337675316432286850
15927050 60 18050844421752573773
17980427 23 17345760823309795175
1813 80 17603864554805583582
21236236 1 18410853235488232799
21279426 13 18264486191648501327
21360443 126 18115304467446305541
21421861 104 18262790887127254634
22182313 1 18130236951705377582
23419403 2 17559939069264970809
23559900 14 18270110211742811044
23845131 108 17620203035660073353
350125 39 18411984702189733564
392239 28 18341339890288421673
4409770 3 18335129865878884663
5104073 3 18341602682536898018
56633871 153 18268435805678943291
56638632 10 16625719356586614785
9709674 26 18129095620513575758

> <PUBCHEM_SHAPE_MULTIPOLES>
513.37
11.63
4.01
1.06
0.46
1.7
0.04
-6.77
3.84
-3.28
-0.14
-0.88
-0.18
1.62

> <PUBCHEM_SHAPE_SELFOVERLAP>
1121.531

> <PUBCHEM_SHAPE_VOLUME>
283.4

> <PUBCHEM_COORDINATE_TYPE>
2
5
10

$$$$
