707050
  -OEChem-10241302563D

 20 20  0     0  0  0  0  0  0999 V2000
   -3.2540    2.0123    0.4092 Cl  0  0  0  0  0  0  0  0  0  0  0  0
    1.9123    2.1444   -0.6633 S   0  0  0  0  0  0  0  0  0  0  0  0
    1.2240   -0.4451    0.0837 N   0  0  0  0  0  0  0  0  0  0  0  0
    3.4894    0.1891    0.0788 N   0  0  0  0  0  0  0  0  0  0  0  0
    3.8210   -1.0823    0.5125 N   0  0  0  0  0  0  0  0  0  0  0  0
   -0.1685   -0.5038    0.0196 C   0  0  0  0  0  0  0  0  0  0  0  0
   -0.9264    0.6496    0.2223 C   0  0  0  0  0  0  0  0  0  0  0  0
   -0.8029   -1.7174   -0.2461 C   0  0  0  0  0  0  0  0  0  0  0  0
   -2.3185    0.5894    0.1592 C   0  0  0  0  0  0  0  0  0  0  0  0
   -2.1950   -1.7776   -0.3091 C   0  0  0  0  0  0  0  0  0  0  0  0
   -2.9527   -0.6241   -0.1066 C   0  0  0  0  0  0  0  0  0  0  0  0
    2.1714    0.5656   -0.1603 C   0  0  0  0  0  0  0  0  0  0  0  0
   -0.4776    1.5945    0.5020 H   0  0  0  0  0  0  0  0  0  0  0  0
   -0.2251   -2.6240   -0.4068 H   0  0  0  0  0  0  0  0  0  0  0  0
    1.6578   -1.3624    0.1724 H   0  0  0  0  0  0  0  0  0  0  0  0
   -2.6889   -2.7224   -0.5161 H   0  0  0  0  0  0  0  0  0  0  0  0
   -4.0367   -0.6860   -0.1588 H   0  0  0  0  0  0  0  0  0  0  0  0
    4.2468    0.8506   -0.0601 H   0  0  0  0  0  0  0  0  0  0  0  0
    4.3476   -0.9703    1.3778 H   0  0  0  0  0  0  0  0  0  0  0  0
    4.4760   -1.4643   -0.1684 H   0  0  0  0  0  0  0  0  0  0  0  0
  1  9  1  0  0  0  0
  2 12  2  0  0  0  0
  3  6  1  0  0  0  0
  3 12  1  0  0  0  0
  3 15  1  0  0  0  0
  4  5  1  0  0  0  0
  4 12  1  0  0  0  0
  4 18  1  0  0  0  0
  5 19  1  0  0  0  0
  5 20  1  0  0  0  0
  6  7  2  0  0  0  0
  6  8  1  0  0  0  0
  7  9  1  0  0  0  0
  7 13  1  0  0  0  0
  8 10  2  0  0  0  0
  8 14  1  0  0  0  0
  9 11  2  0  0  0  0
 10 11  1  0  0  0  0
 10 16  1  0  0  0  0
 11 17  1  0  0  0  0
M  END
> <PUBCHEM_COMPOUND_CID>
707050

> <PUBCHEM_CONFORMER_RMSD>
0.6

> <PUBCHEM_CONFORMER_DIVERSEORDER>
3
9
6
11
16
1
20
19
14
8
21
18
5
7
2
15
4
13
10
12
17

> <PUBCHEM_MMFF94_PARTIAL_CHARGES>
20
1 -0.18
10 -0.15
11 -0.15
12 0.5
13 0.15
14 0.15
15 0.37
16 0.15
17 0.15
18 0.37
19 0.36
2 -0.38
20 0.36
3 -0.55
4 -0.42
5 -0.73
6 0.12
7 -0.15
8 -0.15
9 0.18

> <PUBCHEM_EFFECTIVE_ROTOR_COUNT>
3

> <PUBCHEM_PHARMACOPHORE_FEATURES>
5
1 2 acceptor
1 3 donor
1 4 donor
1 5 donor
6 6 7 8 9 10 11 rings

> <PUBCHEM_HEAVY_ATOM_COUNT>
12

> <PUBCHEM_ATOM_DEF_STEREO_COUNT>
0

> <PUBCHEM_ATOM_UDEF_STEREO_COUNT>
0

> <PUBCHEM_BOND_DEF_STEREO_COUNT>
0

> <PUBCHEM_BOND_UDEF_STEREO_COUNT>
0

> <PUBCHEM_ISOTOPIC_ATOM_COUNT>
0

> <PUBCHEM_COMPONENT_COUNT>
1

> <PUBCHEM_CACTVS_TAUTO_COUNT>
3

> <PUBCHEM_CONFORMER_ID>
000AC9EA00000003

> <PUBCHEM_MMFF94_ENERGY>
40.008

> <PUBCHEM_FEATURE_SELFOVERLAP>
26.915

> <PUBCHEM_SHAPE_FINGERPRINT>
12162725 195 18410575127618117733
12932764 1 17702107073919361570
13380535 76 18270119007377059847
14144814 61 18408885152819274570
14325111 11 18411419526910314584
14897335 6 18270115695914914119
15442244 35 18409165502646571780
15669948 3 18128538360732510054
15775835 57 18334022691433645684
16945 1 18341057414362739223
17041 49 18334856104526410568
18511873 20 18336265656742066216
19973954 147 18265899231646333916
20653085 51 18337686264335306561
20671657 1 18189626106160210044
21501502 16 18338802332909242188
21524375 3 18339644430531413657
23402539 116 18272921735757383199
23463225 33 18409166619184990582
23552423 10 18190739932586435374
23559900 14 17989204812141187282
23598291 2 18334016120418175324
2748010 2 17617101300171956485
7364860 26 18268993270847980788
74978 22 18335703887909724638
9939556 21 18409450323123166316

> <PUBCHEM_SHAPE_MULTIPOLES>
237.73
5.99
2.22
0.71
3.25
0.58
-0.03
0.66
0.6
-0.79
-0.19
0.05
0.09
-0.88

> <PUBCHEM_SHAPE_SELFOVERLAP>
466.759

> <PUBCHEM_SHAPE_VOLUME>
143.6

> <PUBCHEM_COORDINATE_TYPE>
2
5
10

$$$$
