3565210
  -OEChem-10241302543D

 18 18  0     0  0  0  0  0  0999 V2000
   -4.3407    0.0310    0.5875 Br  0  0  0  0  0  0  0  0  0  0  0  0
   -0.5595    0.0257   -0.9327 O   0  0  0  0  0  0  0  0  0  0  0  0
    0.9867   -2.2976   -0.3376 O   0  0  0  0  0  0  0  0  0  0  0  0
    1.0302    2.3114   -0.3053 O   0  0  0  0  0  0  0  0  0  0  0  0
   -1.4035   -0.0533    1.2098 O   0  0  0  0  0  0  0  0  0  0  0  0
    0.7001    0.0101   -0.3654 N   0  0  0  0  0  0  0  0  0  0  0  0
    2.6615   -0.7798    0.5288 C   0  0  0  0  0  0  0  0  0  0  0  0
    2.6758    0.7502    0.5396 C   0  0  0  0  0  0  0  0  0  0  0  0
    1.3534   -1.1543   -0.1141 C   0  0  0  0  0  0  0  0  0  0  0  0
    1.3753    1.1584   -0.0980 C   0  0  0  0  0  0  0  0  0  0  0  0
   -1.5779   -0.0112    0.0001 C   0  0  0  0  0  0  0  0  0  0  0  0
   -2.9015    0.0094   -0.7127 C   0  0  0  0  0  0  0  0  0  0  0  0
    2.7048   -1.1849    1.5440 H   0  0  0  0  0  0  0  0  0  0  0  0
    3.4920   -1.1803   -0.0598 H   0  0  0  0  0  0  0  0  0  0  0  0
    3.5139    1.1434   -0.0432 H   0  0  0  0  0  0  0  0  0  0  0  0
    2.7264    1.1400    1.5604 H   0  0  0  0  0  0  0  0  0  0  0  0
   -3.0010    0.9163   -1.3124 H   0  0  0  0  0  0  0  0  0  0  0  0
   -3.0263   -0.8914   -1.3166 H   0  0  0  0  0  0  0  0  0  0  0  0
  1 12  1  0  0  0  0
  2  6  1  0  0  0  0
  2 11  1  0  0  0  0
  3  9  2  0  0  0  0
  4 10  2  0  0  0  0
  5 11  2  0  0  0  0
  6  9  1  0  0  0  0
  6 10  1  0  0  0  0
  7  8  1  0  0  0  0
  7  9  1  0  0  0  0
  7 13  1  0  0  0  0
  7 14  1  0  0  0  0
  8 10  1  0  0  0  0
  8 15  1  0  0  0  0
  8 16  1  0  0  0  0
 11 12  1  0  0  0  0
 12 17  1  0  0  0  0
 12 18  1  0  0  0  0
M  END
> <PUBCHEM_COMPOUND_CID>
3565210

> <PUBCHEM_CONFORMER_RMSD>
0.6

> <PUBCHEM_CONFORMER_DIVERSEORDER>
1
24
12
22
11
16
20
23
9
14
6
3
10
13
21
5
4
18
25
8
15
19
2
7
17

> <PUBCHEM_MMFF94_PARTIAL_CHARGES>
12
1 -0.23
10 0.57
11 0.66
12 0.29
2 -0.19
3 -0.57
4 -0.57
5 -0.57
6 -0.08
7 0.06
8 0.06
9 0.57

> <PUBCHEM_EFFECTIVE_ROTOR_COUNT>
3.6

> <PUBCHEM_PHARMACOPHORE_FEATURES>
5
1 1 hydrophobe
1 3 acceptor
1 4 acceptor
1 5 acceptor
5 6 7 8 9 10 rings

> <PUBCHEM_HEAVY_ATOM_COUNT>
12

> <PUBCHEM_ATOM_DEF_STEREO_COUNT>
0

> <PUBCHEM_ATOM_UDEF_STEREO_COUNT>
0

> <PUBCHEM_BOND_DEF_STEREO_COUNT>
0

> <PUBCHEM_BOND_UDEF_STEREO_COUNT>
0

> <PUBCHEM_ISOTOPIC_ATOM_COUNT>
0

> <PUBCHEM_COMPONENT_COUNT>
1

> <PUBCHEM_CACTVS_TAUTO_COUNT>
3

> <PUBCHEM_CONFORMER_ID>
0036669A00000001

> <PUBCHEM_MMFF94_ENERGY>
19.2541

> <PUBCHEM_FEATURE_SELFOVERLAP>
25.373

> <PUBCHEM_SHAPE_FINGERPRINT>
10219947 1 18410568487841232106
12932764 1 18410013239059572015
14251717 144 18410848876365595703
15501101 241 18187082858170389981
15775835 57 17775283910543712185
16945 1 18410570686621849198
20201158 50 18260265226839035971
20645477 70 18338787919653306791
20871998 22 18054792780355138934
2748010 2 18051400778224190806
29004967 10 18335136454036820050
5084963 1 18060135474678417540

> <PUBCHEM_SHAPE_MULTIPOLES>
224.44
5.76
1.64
0.91
6.51
0.02
-0.08
0.05
-1.33
-1.39
0.21
0.34
-0.01
0

> <PUBCHEM_SHAPE_SELFOVERLAP>
443.357

> <PUBCHEM_SHAPE_VOLUME>
136.4

> <PUBCHEM_COORDINATE_TYPE>
2
5
10

$$$$
