57397368
  -OEChem-10241302483D

 44 47  0     1  0  0  0  0  0999 V2000
   -1.1554   -2.6995    0.2004 O   0  0  0  0  0  0  0  0  0  0  0  0
    0.6361    0.4674   -0.1484 O   0  0  0  0  0  0  0  0  0  0  0  0
    1.4493   -3.5258    0.2948 O   0  0  0  0  0  0  0  0  0  0  0  0
   -5.0798   -1.2704   -0.5256 O   0  0  0  0  0  0  0  0  0  0  0  0
    2.6048    2.3147   -0.2298 O   0  0  0  0  0  0  0  0  0  0  0  0
   -5.6481    1.4052   -0.1870 O   0  0  0  0  0  0  0  0  0  0  0  0
    5.2563    1.5664    0.0062 O   0  0  0  0  0  0  0  0  0  0  0  0
   -0.3148   -0.4556    0.3986 C   0  0  2  0  0  0  0  0  0  0  0  0
   -0.1569   -1.8149   -0.2780 C   0  0  1  0  0  0  0  0  0  0  0  0
   -1.7276    0.0552    0.2127 C   0  0  0  0  0  0  0  0  0  0  0  0
   -2.7588   -0.8595   -0.0739 C   0  0  0  0  0  0  0  0  0  0  0  0
   -2.4513   -2.3227   -0.2777 C   0  0  0  0  0  0  0  0  0  0  0  0
    1.2132   -2.3446    0.0768 C   0  0  0  0  0  0  0  0  0  0  0  0
    2.2817   -1.3227    0.1027 C   0  0  0  0  0  0  0  0  0  0  0  0
    1.9319    0.0265   -0.0327 C   0  0  0  0  0  0  0  0  0  0  0  0
   -2.0407    1.4093    0.3957 C   0  0  0  0  0  0  0  0  0  0  0  0
   -4.0743   -0.3999   -0.2184 C   0  0  0  0  0  0  0  0  0  0  0  0
    2.9311    0.9990   -0.0794 C   0  0  0  0  0  0  0  0  0  0  0  0
   -4.3701    0.9524   -0.0519 C   0  0  0  0  0  0  0  0  0  0  0  0
    3.6210   -1.6977    0.2278 C   0  0  0  0  0  0  0  0  0  0  0  0
   -3.3555    1.8549    0.2584 C   0  0  0  0  0  0  0  0  0  0  0  0
    4.2704    0.6261    0.0408 C   0  0  0  0  0  0  0  0  0  0  0  0
    4.6136   -0.7176    0.1991 C   0  0  0  0  0  0  0  0  0  0  0  0
    2.3847    3.0663    0.9614 C   0  0  0  0  0  0  0  0  0  0  0  0
   -5.8632    2.8027   -0.0003 C   0  0  0  0  0  0  0  0  0  0  0  0
    5.8023    1.8850   -1.2723 C   0  0  0  0  0  0  0  0  0  0  0  0
   -0.1566   -0.5349    1.4852 H   0  0  0  0  0  0  0  0  0  0  0  0
   -0.1995   -1.7504   -1.3747 H   0  0  0  0  0  0  0  0  0  0  0  0
   -3.1616   -2.9434    0.2779 H   0  0  0  0  0  0  0  0  0  0  0  0
   -2.5171   -2.5766   -1.3421 H   0  0  0  0  0  0  0  0  0  0  0  0
   -1.2634    2.1258    0.6492 H   0  0  0  0  0  0  0  0  0  0  0  0
    3.9090   -2.7394    0.3353 H   0  0  0  0  0  0  0  0  0  0  0  0
   -3.5122    2.9172    0.4105 H   0  0  0  0  0  0  0  0  0  0  0  0
    5.6564   -1.0093    0.2934 H   0  0  0  0  0  0  0  0  0  0  0  0
   -4.7243   -2.1234   -0.8193 H   0  0  0  0  0  0  0  0  0  0  0  0
    2.1251    4.0897    0.6773 H   0  0  0  0  0  0  0  0  0  0  0  0
    3.2917    3.0930    1.5735 H   0  0  0  0  0  0  0  0  0  0  0  0
    1.5557    2.6431    1.5376 H   0  0  0  0  0  0  0  0  0  0  0  0
   -6.9327    2.9863   -0.1476 H   0  0  0  0  0  0  0  0  0  0  0  0
   -5.3328    3.3972   -0.7520 H   0  0  0  0  0  0  0  0  0  0  0  0
   -5.6259    3.1146    1.0226 H   0  0  0  0  0  0  0  0  0  0  0  0
    6.2685    1.0020   -1.7208 H   0  0  0  0  0  0  0  0  0  0  0  0
    5.0259    2.2783   -1.9361 H   0  0  0  0  0  0  0  0  0  0  0  0
    6.5679    2.6536   -1.1359 H   0  0  0  0  0  0  0  0  0  0  0  0
  1  9  1  0  0  0  0
  1 12  1  0  0  0  0
  2  8  1  0  0  0  0
  2 15  1  0  0  0  0
  3 13  2  0  0  0  0
  4 17  1  0  0  0  0
  4 35  1  0  0  0  0
  5 18  1  0  0  0  0
  5 24  1  0  0  0  0
  6 19  1  0  0  0  0
  6 25  1  0  0  0  0
  7 22  1  0  0  0  0
  7 26  1  0  0  0  0
  8  9  1  0  0  0  0
  8 10  1  0  0  0  0
  8 27  1  0  0  0  0
  9 13  1  0  0  0  0
  9 28  1  0  0  0  0
 10 11  2  0  0  0  0
 10 16  1  0  0  0  0
 11 12  1  0  0  0  0
 11 17  1  0  0  0  0
 12 29  1  0  0  0  0
 12 30  1  0  0  0  0
 13 14  1  0  0  0  0
 14 15  2  0  0  0  0
 14 20  1  0  0  0  0
 15 18  1  0  0  0  0
 16 21  2  0  0  0  0
 16 31  1  0  0  0  0
 17 19  2  0  0  0  0
 18 22  2  0  0  0  0
 19 21  1  0  0  0  0
 20 23  2  0  0  0  0
 20 32  1  0  0  0  0
 21 33  1  0  0  0  0
 22 23  1  0  0  0  0
 23 34  1  0  0  0  0
 24 36  1  0  0  0  0
 24 37  1  0  0  0  0
 24 38  1  0  0  0  0
 25 39  1  0  0  0  0
 25 40  1  0  0  0  0
 25 41  1  0  0  0  0
 26 42  1  0  0  0  0
 26 43  1  0  0  0  0
 26 44  1  0  0  0  0
M  END
> <PUBCHEM_COMPOUND_CID>
57397368

> <PUBCHEM_CONFORMER_RMSD>
0.8

> <PUBCHEM_CONFORMER_DIVERSEORDER>
1
3
4
2

> <PUBCHEM_MMFF94_PARTIAL_CHARGES>
31
1 -0.56
10 -0.14
11 -0.14
12 0.42
13 0.42
14 0.09
15 0.08
16 -0.15
17 0.08
18 0.08
19 0.08
2 -0.36
20 -0.15
21 -0.15
22 0.08
23 -0.15
24 0.28
25 0.28
26 0.28
3 -0.57
31 0.15
32 0.15
33 0.15
34 0.15
35 0.45
4 -0.53
5 -0.36
6 -0.36
7 -0.36
8 0.42
9 0.34

> <PUBCHEM_EFFECTIVE_ROTOR_COUNT>
3.6

> <PUBCHEM_PHARMACOPHORE_FEATURES>
11
1 1 acceptor
1 2 acceptor
1 3 acceptor
1 4 donor
1 5 acceptor
1 6 acceptor
1 7 acceptor
6 1 8 9 10 11 12 rings
6 10 11 16 17 19 21 rings
6 14 15 18 20 22 23 rings
6 2 8 9 13 14 15 rings

> <PUBCHEM_HEAVY_ATOM_COUNT>
26

> <PUBCHEM_ATOM_DEF_STEREO_COUNT>
0

> <PUBCHEM_ATOM_UDEF_STEREO_COUNT>
2

> <PUBCHEM_BOND_DEF_STEREO_COUNT>
0

> <PUBCHEM_BOND_UDEF_STEREO_COUNT>
0

> <PUBCHEM_ISOTOPIC_ATOM_COUNT>
0

> <PUBCHEM_COMPONENT_COUNT>
1

> <PUBCHEM_CACTVS_TAUTO_COUNT>
4

> <PUBCHEM_CONFORMER_ID>
036BD07800000001

> <PUBCHEM_MMFF94_ENERGY>
109.2414

> <PUBCHEM_FEATURE_SELFOVERLAP>
55.927

> <PUBCHEM_SHAPE_FINGERPRINT>
10411042 1 17473262072319823298
10595046 47 18411414004204981191
10616163 171 18339924934302540799
10967382 1 18339079272680030610
11370993 70 18411132567144303010
11578080 2 17242437331650536167
12107183 9 17977099063658188434
12236239 1 18259983777410466010
12403259 415 18200313350264976696
12788726 201 17632303306957256321
13140716 1 18337102453836647978
138480 1 17834113039649261858
14466204 15 18411409606037118712
14528608 73 18411980269192445756
14790565 3 18408889559503576388
14931854 50 18343023293755906780
15196674 1 18410855447480896583
15238133 3 18409442627354285336
1601671 61 18408603691154974084
18608769 82 18120382209126437962
18681886 176 18272923912995137410
20715895 44 18122902019938165553
21033648 144 18187639202580031367
21033648 29 18340482386919525744
21033650 10 15410346446573360603
21267235 1 18411426115438152071
21304253 335 18261117356708252476
21421861 104 17822558410145434594
22393880 68 18272370927175646292
23227448 37 18413387657188066167
23402539 116 18343012281733540069
23558518 356 17972878335146355490
23559900 14 18200589181734047618
245318 6 17605856917120235276
3004659 81 18408043988476214982
335352 9 18338797802246434726
345986 75 17245807279245518250
350125 39 18338239391566633618
3680242 22 18263640680434229810
4073 2 18041286525701232363
4214541 1 18411417310912859693
4280585 95 17553778265677564206
474 4 18336266764606186931
5104073 3 18334293150056535211
543358 83 18339643334760975778
8272917 22 18339080372017715030
9709674 26 18413112744900700335
9981440 41 18335700584864298491

> <PUBCHEM_SHAPE_MULTIPOLES>
493.98
12.33
3.56
0.74
3.91
0.32
-0.04
-8.47
-2.03
-0.25
0.25
-0.41
-0.22
-0.72

> <PUBCHEM_SHAPE_SELFOVERLAP>
1095.051

> <PUBCHEM_SHAPE_VOLUME>
263.3

> <PUBCHEM_COORDINATE_TYPE>
2
5
10

$$$$
