44357463
  -OEChem-10241302543D

 76 80  0     1  0  0  0  0  0999 V2000
    1.9103    2.4773   -2.5047 O   0  0  0  0  0  0  0  0  0  0  0  0
    4.2866    1.1164   -0.1116 O   0  0  0  0  0  0  0  0  0  0  0  0
    0.1842    2.8184    0.3206 O   0  0  0  0  0  0  0  0  0  0  0  0
    3.2564    3.0862    1.6132 O   0  0  0  0  0  0  0  0  0  0  0  0
    0.3521   -1.9471    0.5293 O   0  0  0  0  0  0  0  0  0  0  0  0
   -1.0712    1.5256    1.7674 O   0  0  0  0  0  0  0  0  0  0  0  0
   -0.4249   -2.3530    2.6572 O   0  0  0  0  0  0  0  0  0  0  0  0
   -3.1669   -0.8334   -0.3085 O   0  0  0  0  0  0  0  0  0  0  0  0
   -5.9998   -0.8984   -0.2959 O   0  0  0  0  0  0  0  0  0  0  0  0
    1.4841    0.8807   -0.6150 C   0  0  1  0  0  0  0  0  0  0  0  0
    2.4722    1.5661   -1.5463 C   0  0  2  0  0  0  0  0  0  0  0  0
    2.2516   -0.3968   -0.0201 C   0  0  2  0  0  0  0  0  0  0  0  0
    3.4916    2.1741   -0.6538 C   0  0  1  0  0  0  0  0  0  0  0  0
    1.3491    1.9874    0.5223 C   0  0  1  0  0  0  0  0  0  0  0  0
    2.6436    1.3636   -3.0329 C   0  0  0  0  0  0  0  0  0  0  0  0
    2.6030    2.8890    0.3737 C   0  0  1  0  0  0  0  0  0  0  0  0
    3.5981    0.1008    0.6406 C   0  0  1  0  0  0  0  0  0  0  0  0
    0.1570    0.5511   -1.2984 C   0  0  0  0  0  0  0  0  0  0  0  0
    2.6229   -1.4198   -1.1368 C   0  0  0  0  0  0  0  0  0  0  0  0
    1.4018   -1.1263    1.0814 C   0  0  0  0  0  0  0  0  0  0  0  0
    4.6121   -0.9925    0.8657 C   0  0  0  0  0  0  0  0  0  0  0  0
    3.4374   -2.6128   -0.6202 C   0  0  0  0  0  0  0  0  0  0  0  0
    4.5438   -2.2186    0.3210 C   0  0  0  0  0  0  0  0  0  0  0  0
   -0.9494    2.4522    0.9825 C   0  0  0  0  0  0  0  0  0  0  0  0
    5.5648   -3.2764    0.6191 C   0  0  0  0  0  0  0  0  0  0  0  0
   -0.4701   -2.5230    1.4440 C   0  0  0  0  0  0  0  0  0  0  0  0
   -2.0323    3.3722    0.5651 C   0  0  0  0  0  0  0  0  0  0  0  0
   -1.4114   -3.5036    0.8539 C   0  0  0  0  0  0  0  0  0  0  0  0
   -3.3292    3.1767    0.8442 C   0  0  0  0  0  0  0  0  0  0  0  0
   -2.0139   -3.5274   -0.3502 C   0  0  0  0  0  0  0  0  0  0  0  0
   -3.9146    2.0570    1.5413 C   0  0  0  0  0  0  0  0  0  0  0  0
   -1.8512   -2.5176   -1.4604 C   0  0  0  0  0  0  0  0  0  0  0  0
   -2.9663   -4.6538   -0.6745 C   0  0  0  0  0  0  0  0  0  0  0  0
   -4.1653    0.8384    1.0369 C   0  0  0  0  0  0  0  0  0  0  0  0
   -3.0002   -1.5117   -1.5534 C   0  0  0  0  0  0  0  0  0  0  0  0
   -3.9563    0.3611   -0.3788 C   0  0  2  0  0  0  0  0  0  0  0  0
   -5.3289    0.1276   -1.0149 C   0  0  2  0  0  0  0  0  0  0  0  0
   -6.1707    1.3902   -1.0032 C   0  0  0  0  0  0  0  0  0  0  0  0
    4.1641    2.8753   -1.1575 H   0  0  0  0  0  0  0  0  0  0  0  0
    1.3144    1.5749    1.5332 H   0  0  0  0  0  0  0  0  0  0  0  0
    3.6140    1.5641   -3.4688 H   0  0  0  0  0  0  0  0  0  0  0  0
    2.0790    0.5869   -3.5306 H   0  0  0  0  0  0  0  0  0  0  0  0
    2.3135    3.8742   -0.0136 H   0  0  0  0  0  0  0  0  0  0  0  0
    3.3779    0.5169    1.6311 H   0  0  0  0  0  0  0  0  0  0  0  0
    0.2844   -0.1742   -2.1063 H   0  0  0  0  0  0  0  0  0  0  0  0
   -0.2997    1.4342   -1.7591 H   0  0  0  0  0  0  0  0  0  0  0  0
   -0.5665    0.1533   -0.5852 H   0  0  0  0  0  0  0  0  0  0  0  0
    3.2291   -0.9332   -1.9083 H   0  0  0  0  0  0  0  0  0  0  0  0
    1.7307   -1.8012   -1.6445 H   0  0  0  0  0  0  0  0  0  0  0  0
    2.0406   -1.7849    1.6819 H   0  0  0  0  0  0  0  0  0  0  0  0
    0.9563   -0.4093    1.7754 H   0  0  0  0  0  0  0  0  0  0  0  0
    5.4394   -0.7482    1.5284 H   0  0  0  0  0  0  0  0  0  0  0  0
    3.8611   -3.1356   -1.4866 H   0  0  0  0  0  0  0  0  0  0  0  0
    2.7776   -3.3279   -0.1145 H   0  0  0  0  0  0  0  0  0  0  0  0
    2.6135    3.4892    2.2212 H   0  0  0  0  0  0  0  0  0  0  0  0
    5.0822   -4.1545    1.0601 H   0  0  0  0  0  0  0  0  0  0  0  0
    6.3286   -2.9276    1.3222 H   0  0  0  0  0  0  0  0  0  0  0  0
    6.0735   -3.5836   -0.3003 H   0  0  0  0  0  0  0  0  0  0  0  0
   -1.7400    4.2676    0.0233 H   0  0  0  0  0  0  0  0  0  0  0  0
   -1.6733   -4.2861    1.5662 H   0  0  0  0  0  0  0  0  0  0  0  0
   -4.0388    3.9460    0.5474 H   0  0  0  0  0  0  0  0  0  0  0  0
   -4.1924    2.2562    2.5738 H   0  0  0  0  0  0  0  0  0  0  0  0
   -0.9140   -1.9784   -1.3560 H   0  0  0  0  0  0  0  0  0  0  0  0
   -1.7621   -3.0468   -2.4177 H   0  0  0  0  0  0  0  0  0  0  0  0
   -3.9731   -4.2651   -0.8567 H   0  0  0  0  0  0  0  0  0  0  0  0
   -3.0393   -5.3875    0.1354 H   0  0  0  0  0  0  0  0  0  0  0  0
   -2.6310   -5.1876   -1.5699 H   0  0  0  0  0  0  0  0  0  0  0  0
   -4.6057    0.1140    1.7219 H   0  0  0  0  0  0  0  0  0  0  0  0
   -2.7734   -0.7883   -2.3454 H   0  0  0  0  0  0  0  0  0  0  0  0
   -3.9259   -2.0363   -1.8113 H   0  0  0  0  0  0  0  0  0  0  0  0
   -3.3957    1.0980   -0.9652 H   0  0  0  0  0  0  0  0  0  0  0  0
   -5.2195   -0.2128   -2.0498 H   0  0  0  0  0  0  0  0  0  0  0  0
   -6.5042    1.6650    0.0029 H   0  0  0  0  0  0  0  0  0  0  0  0
   -7.0889    1.2252   -1.5792 H   0  0  0  0  0  0  0  0  0  0  0  0
   -5.6410    2.2347   -1.4546 H   0  0  0  0  0  0  0  0  0  0  0  0
   -6.8669   -1.0330   -0.7148 H   0  0  0  0  0  0  0  0  0  0  0  0
  1 11  1  0  0  0  0
  1 15  1  0  0  0  0
  2 13  1  0  0  0  0
  2 17  1  0  0  0  0
  3 14  1  0  0  0  0
  3 24  1  0  0  0  0
  4 16  1  0  0  0  0
  4 55  1  0  0  0  0
  5 20  1  0  0  0  0
  5 26  1  0  0  0  0
  6 24  2  0  0  0  0
  7 26  2  0  0  0  0
  8 35  1  0  0  0  0
  8 36  1  0  0  0  0
  9 37  1  0  0  0  0
  9 76  1  0  0  0  0
 10 11  1  0  0  0  0
 10 12  1  0  0  0  0
 10 14  1  0  0  0  0
 10 18  1  0  0  0  0
 11 13  1  0  0  0  0
 11 15  1  0  0  0  0
 12 17  1  0  0  0  0
 12 19  1  0  0  0  0
 12 20  1  0  0  0  0
 13 16  1  0  0  0  0
 13 39  1  0  0  0  0
 14 16  1  0  0  0  0
 14 40  1  0  0  0  0
 15 41  1  0  0  0  0
 15 42  1  0  0  0  0
 16 43  1  0  0  0  0
 17 21  1  0  0  0  0
 17 44  1  0  0  0  0
 18 45  1  0  0  0  0
 18 46  1  0  0  0  0
 18 47  1  0  0  0  0
 19 22  1  0  0  0  0
 19 48  1  0  0  0  0
 19 49  1  0  0  0  0
 20 50  1  0  0  0  0
 20 51  1  0  0  0  0
 21 23  2  0  0  0  0
 21 52  1  0  0  0  0
 22 23  1  0  0  0  0
 22 53  1  0  0  0  0
 22 54  1  0  0  0  0
 23 25  1  0  0  0  0
 24 27  1  0  0  0  0
 25 56  1  0  0  0  0
 25 57  1  0  0  0  0
 25 58  1  0  0  0  0
 26 28  1  0  0  0  0
 27 29  2  0  0  0  0
 27 59  1  0  0  0  0
 28 30  2  0  0  0  0
 28 60  1  0  0  0  0
 29 31  1  0  0  0  0
 29 61  1  0  0  0  0
 30 32  1  0  0  0  0
 30 33  1  0  0  0  0
 31 34  2  0  0  0  0
 31 62  1  0  0  0  0
 32 35  1  0  0  0  0
 32 63  1  0  0  0  0
 32 64  1  0  0  0  0
 33 65  1  0  0  0  0
 33 66  1  0  0  0  0
 33 67  1  0  0  0  0
 34 36  1  0  0  0  0
 34 68  1  0  0  0  0
 35 69  1  0  0  0  0
 35 70  1  0  0  0  0
 36 37  1  0  0  0  0
 36 71  1  0  0  0  0
 37 38  1  0  0  0  0
 37 72  1  0  0  0  0
 38 73  1  0  0  0  0
 38 74  1  0  0  0  0
 38 75  1  0  0  0  0
M  END
> <PUBCHEM_COMPOUND_CID>
44357463

> <PUBCHEM_CONFORMER_RMSD>
0.8

> <PUBCHEM_CONFORMER_DIVERSEORDER>
1
6
2
3
4
5

> <PUBCHEM_MMFF94_PARTIAL_CHARGES>
44
1 -0.3
10 0.09
11 -0.04
13 0.38
14 0.28
15 -0.05
16 0.28
17 0.42
2 -0.56
20 0.28
21 -0.29
22 0.14
23 -0.28
24 0.71
25 0.14
26 0.71
27 -0.14
28 -0.14
29 -0.15
3 -0.43
30 -0.28
31 -0.15
32 0.14
33 0.14
34 -0.29
35 0.28
36 0.42
37 0.28
4 -0.68
41 0.1
42 0.1
5 -0.43
52 0.15
55 0.4
59 0.15
6 -0.57
60 0.15
61 0.15
62 0.15
68 0.15
7 -0.57
76 0.4
8 -0.56
9 -0.68

> <PUBCHEM_EFFECTIVE_ROTOR_COUNT>
3.6

> <PUBCHEM_PHARMACOPHORE_FEATURES>
11
1 1 acceptor
1 2 acceptor
1 4 acceptor
1 4 donor
1 6 acceptor
1 7 acceptor
1 8 acceptor
1 9 acceptor
1 9 donor
6 12 17 19 21 22 23 rings
8 2 10 11 12 13 14 16 17 rings

> <PUBCHEM_HEAVY_ATOM_COUNT>
38

> <PUBCHEM_ATOM_DEF_STEREO_COUNT>
8

> <PUBCHEM_ATOM_UDEF_STEREO_COUNT>
1

> <PUBCHEM_BOND_DEF_STEREO_COUNT>
3

> <PUBCHEM_BOND_UDEF_STEREO_COUNT>
0

> <PUBCHEM_ISOTOPIC_ATOM_COUNT>
0

> <PUBCHEM_COMPONENT_COUNT>
1

> <PUBCHEM_CACTVS_TAUTO_COUNT>
1

> <PUBCHEM_CONFORMER_ID>
02A4D75700000001

> <PUBCHEM_MMFF94_ENERGY>
133.3412

> <PUBCHEM_FEATURE_SELFOVERLAP>
55.841

> <PUBCHEM_SHAPE_FINGERPRINT>
1100329 8 18410852140129439803
11513181 2 17841708513445348095
12156800 1 16120713357085153965
12422481 6 17690832363930054746
12788726 201 17989495121375658561
14068700 675 18269546148596476720
14289585 56 17533496737976832836
15001296 14 18409443653524388833
15297060 5 17700125509496021483
15420108 30 17546721556693583704
16112460 7 18336261263243749442
16114785 44 15902299031186933553
17818456 19 18412544310131324806
19319366 153 18187639250147016035
20028762 73 18198337355976446366
20764821 26 17689447396016848553
338550 245 18337399222938906165
460360 51 18261122918712538563
463206 1 18411983585187240913
469060 322 17605838006325924054
9896288 288 17408801017556080608

> <PUBCHEM_SHAPE_MULTIPOLES>
729.2
10.86
5.45
1.96
5.84
2.61
-0.58
1.21
-0.78
0.67
0.75
-0.36
-0.46
-2.01

> <PUBCHEM_SHAPE_SELFOVERLAP>
1546.623

> <PUBCHEM_SHAPE_VOLUME>
399.8

> <PUBCHEM_COORDINATE_TYPE>
2
5
10

$$$$
