10362969
  -OEChem-10241302483D

 55 58  0     0  0  0  0  0  0999 V2000
    1.2835   -0.0661   -0.4601 O   0  0  0  0  0  0  0  0  0  0  0  0
   -0.6907   -3.5296    0.6792 O   0  0  0  0  0  0  0  0  0  0  0  0
    6.0697    0.6645   -0.3696 O   0  0  0  0  0  0  0  0  0  0  0  0
   -4.9663   -1.7556   -0.3131 O   0  0  0  0  0  0  0  0  0  0  0  0
    1.3691   -2.1758    0.3441 C   0  0  0  0  0  0  0  0  0  0  0  0
    0.5753   -1.1568   -0.1019 C   0  0  0  0  0  0  0  0  0  0  0  0
    2.6980   -1.6952    0.2648 C   0  0  0  0  0  0  0  0  0  0  0  0
    2.5946   -0.3937   -0.2356 C   0  0  0  0  0  0  0  0  0  0  0  0
   -0.8527   -1.2273   -0.1863 C   0  0  0  0  0  0  0  0  0  0  0  0
    0.7623   -3.4515    0.7805 C   0  0  0  0  0  0  0  0  0  0  0  0
    3.6875    0.4395   -0.4670 C   0  0  0  0  0  0  0  0  0  0  0  0
   -1.4191   -2.4499    0.2234 C   0  0  0  0  0  0  0  0  0  0  0  0
   -1.6650   -0.1863   -0.6358 C   0  0  0  0  0  0  0  0  0  0  0  0
    3.9763   -2.2025    0.5553 C   0  0  0  0  0  0  0  0  0  0  0  0
   -3.0484   -0.3642   -0.6779 C   0  0  0  0  0  0  0  0  0  0  0  0
    3.5390    1.8237   -1.0016 C   0  0  0  0  0  0  0  0  0  0  0  0
    4.9477   -0.0885   -0.1704 C   0  0  0  0  0  0  0  0  0  0  0  0
   -2.8039   -2.6168    0.1764 C   0  0  0  0  0  0  0  0  0  0  0  0
    5.0919   -1.3845    0.3313 C   0  0  0  0  0  0  0  0  0  0  0  0
   -3.6157   -1.5743   -0.2737 C   0  0  0  0  0  0  0  0  0  0  0  0
   -3.9113    0.7560   -1.1590 C   0  0  0  0  0  0  0  0  0  0  0  0
    3.3812    2.8604    0.0840 C   0  0  0  0  0  0  0  0  0  0  0  0
   -4.3514    1.6763   -0.0479 C   0  0  0  0  0  0  0  0  0  0  0  0
    2.3354    3.6798    0.3045 C   0  0  0  0  0  0  0  0  0  0  0  0
   -5.6061    1.9369    0.3665 C   0  0  0  0  0  0  0  0  0  0  0  0
    2.2452    4.6932    1.4101 C   0  0  0  0  0  0  0  0  0  0  0  0
    1.1304    3.6365   -0.5973 C   0  0  0  0  0  0  0  0  0  0  0  0
   -5.9743    2.8692    1.4855 C   0  0  0  0  0  0  0  0  0  0  0  0
   -6.7824    1.2827   -0.3085 C   0  0  0  0  0  0  0  0  0  0  0  0
    1.1629   -4.2783    0.1839 H   0  0  0  0  0  0  0  0  0  0  0  0
    1.0147   -3.6451    1.8286 H   0  0  0  0  0  0  0  0  0  0  0  0
   -1.2251    0.7575   -0.9489 H   0  0  0  0  0  0  0  0  0  0  0  0
    4.1053   -3.2076    0.9456 H   0  0  0  0  0  0  0  0  0  0  0  0
    4.4219    2.0940   -1.5955 H   0  0  0  0  0  0  0  0  0  0  0  0
    2.7240    1.8407   -1.7304 H   0  0  0  0  0  0  0  0  0  0  0  0
   -3.2448   -3.5597    0.4911 H   0  0  0  0  0  0  0  0  0  0  0  0
    6.0797   -1.7802    0.5570 H   0  0  0  0  0  0  0  0  0  0  0  0
   -3.3383    1.3660   -1.8719 H   0  0  0  0  0  0  0  0  0  0  0  0
   -4.7295    0.3639   -1.7676 H   0  0  0  0  0  0  0  0  0  0  0  0
    4.2320    2.9468    0.7595 H   0  0  0  0  0  0  0  0  0  0  0  0
   -3.5402    2.1899    0.4681 H   0  0  0  0  0  0  0  0  0  0  0  0
    6.8513    0.1460   -0.1125 H   0  0  0  0  0  0  0  0  0  0  0  0
   -5.1766   -2.6506    0.0040 H   0  0  0  0  0  0  0  0  0  0  0  0
    2.1048    5.6970    0.9966 H   0  0  0  0  0  0  0  0  0  0  0  0
    3.1552    4.7063    2.0189 H   0  0  0  0  0  0  0  0  0  0  0  0
    1.4037    4.4646    2.0717 H   0  0  0  0  0  0  0  0  0  0  0  0
    0.2177    3.7853   -0.0083 H   0  0  0  0  0  0  0  0  0  0  0  0
    0.9883    2.6883   -1.1181 H   0  0  0  0  0  0  0  0  0  0  0  0
    1.1862    4.4410   -1.3377 H   0  0  0  0  0  0  0  0  0  0  0  0
   -5.0881    3.3339    1.9301 H   0  0  0  0  0  0  0  0  0  0  0  0
   -6.6230    3.6703    1.1170 H   0  0  0  0  0  0  0  0  0  0  0  0
   -6.5006    2.3274    2.2777 H   0  0  0  0  0  0  0  0  0  0  0  0
   -6.5441    0.4481   -0.9667 H   0  0  0  0  0  0  0  0  0  0  0  0
   -7.4638    0.8800    0.4500 H   0  0  0  0  0  0  0  0  0  0  0  0
   -7.3340    2.0261   -0.8937 H   0  0  0  0  0  0  0  0  0  0  0  0
  1  6  1  0  0  0  0
  1  8  1  0  0  0  0
  2 10  1  0  0  0  0
  2 12  1  0  0  0  0
  3 17  1  0  0  0  0
  3 42  1  0  0  0  0
  4 20  1  0  0  0  0
  4 43  1  0  0  0  0
  5  6  2  0  0  0  0
  5  7  1  0  0  0  0
  5 10  1  0  0  0  0
  6  9  1  0  0  0  0
  7  8  2  0  0  0  0
  7 14  1  0  0  0  0
  8 11  1  0  0  0  0
  9 12  2  0  0  0  0
  9 13  1  0  0  0  0
 10 30  1  0  0  0  0
 10 31  1  0  0  0  0
 11 16  1  0  0  0  0
 11 17  2  0  0  0  0
 12 18  1  0  0  0  0
 13 15  2  0  0  0  0
 13 32  1  0  0  0  0
 14 19  2  0  0  0  0
 14 33  1  0  0  0  0
 15 20  1  0  0  0  0
 15 21  1  0  0  0  0
 16 22  1  0  0  0  0
 16 34  1  0  0  0  0
 16 35  1  0  0  0  0
 17 19  1  0  0  0  0
 18 20  2  0  0  0  0
 18 36  1  0  0  0  0
 19 37  1  0  0  0  0
 21 23  1  0  0  0  0
 21 38  1  0  0  0  0
 21 39  1  0  0  0  0
 22 24  2  0  0  0  0
 22 40  1  0  0  0  0
 23 25  2  0  0  0  0
 23 41  1  0  0  0  0
 24 26  1  0  0  0  0
 24 27  1  0  0  0  0
 25 28  1  0  0  0  0
 25 29  1  0  0  0  0
 26 44  1  0  0  0  0
 26 45  1  0  0  0  0
 26 46  1  0  0  0  0
 27 47  1  0  0  0  0
 27 48  1  0  0  0  0
 27 49  1  0  0  0  0
 28 50  1  0  0  0  0
 28 51  1  0  0  0  0
 28 52  1  0  0  0  0
 29 53  1  0  0  0  0
 29 54  1  0  0  0  0
 29 55  1  0  0  0  0
M  END
> <PUBCHEM_COMPOUND_CID>
10362969

> <PUBCHEM_CONFORMER_RMSD>
0.8

> <PUBCHEM_CONFORMER_DIVERSEORDER>
1
23
31
45
11
47
39
19
27
37
36
2
46
28
42
22
29
40
8
38
4
33
16
17
41
35
3
13
32
9
10
21
34
5
18
48
20
12
25
44
43
49
26
30
6
14
24
7
15

> <PUBCHEM_MMFF94_PARTIAL_CHARGES>
36
1 -0.28
10 0.46
11 -0.14
12 0.08
13 -0.15
14 -0.15
15 -0.14
16 0.28
17 0.08
18 -0.15
19 -0.15
2 -0.36
20 0.08
21 0.28
22 -0.29
23 -0.29
24 -0.28
25 -0.28
26 0.14
27 0.14
28 0.14
29 0.14
3 -0.53
32 0.15
33 0.15
36 0.15
37 0.15
4 -0.53
40 0.15
41 0.15
42 0.45
43 0.45
5 -0.18
6 0.09
8 0.14
9 0.05

> <PUBCHEM_EFFECTIVE_ROTOR_COUNT>
4.4

> <PUBCHEM_PHARMACOPHORE_FEATURES>
10
1 1 acceptor
1 2 acceptor
1 3 donor
1 4 donor
3 24 26 27 hydrophobe
3 25 28 29 hydrophobe
5 1 5 6 7 8 rings
6 2 5 6 9 10 12 rings
6 7 8 11 14 17 19 rings
6 9 12 13 15 18 20 rings

> <PUBCHEM_HEAVY_ATOM_COUNT>
29

> <PUBCHEM_ATOM_DEF_STEREO_COUNT>
0

> <PUBCHEM_ATOM_UDEF_STEREO_COUNT>
0

> <PUBCHEM_BOND_DEF_STEREO_COUNT>
0

> <PUBCHEM_BOND_UDEF_STEREO_COUNT>
0

> <PUBCHEM_ISOTOPIC_ATOM_COUNT>
0

> <PUBCHEM_COMPONENT_COUNT>
1

> <PUBCHEM_CACTVS_TAUTO_COUNT>
8

> <PUBCHEM_CONFORMER_ID>
009E205900000001

> <PUBCHEM_MMFF94_ENERGY>
70.7817

> <PUBCHEM_FEATURE_SELFOVERLAP>
50.97

> <PUBCHEM_SHAPE_FINGERPRINT>
10411042 1 17398384231009625026
10439779 11 18267292313448666096
1100329 8 18411702067070946577
12107183 9 18191579757718052162
12390115 104 18338248097930001471
12633257 1 18335413539288058965
12788726 201 17488183691144463313
12925494 130 18409727396338952729
13140716 1 18334295374833723983
14020679 6 17967259688994292089
14466204 15 18335972104580953034
14790565 3 18410296900343635887
14849402 71 18408326604896770948
15081414 286 18195525887584985455
15082195 135 18267844178197017591
15238133 3 18408045126431565228
15320467 1 18337953377053078093
15351339 4 18341606074897157601
16112460 7 18340492175113063401
16760501 71 18409454670136550041
17844677 252 18339647853330380159
18681886 176 18341602733871660098
21033648 144 18262504983606635005
21033648 29 17774135990935869834
21133410 127 17537144114737819317
21585483 110 18189888717925666381
22122407 14 18340778104365985753
23559900 14 18267862981553179050
335352 9 18335420119880089798
350125 39 18334294305429175855
3680242 22 18188201001614287450
437795 70 17699878153660590484
508180 173 18340782511108063000
5104073 3 18186235134489499938

> <PUBCHEM_SHAPE_MULTIPOLES>
573.33
13.56
5.4
0.98
12.69
3.94
-0.12
6.83
-0.35
-1.72
-2.02
0.35
0.53
-1.05

> <PUBCHEM_SHAPE_SELFOVERLAP>
1253.721

> <PUBCHEM_SHAPE_VOLUME>
313.1

> <PUBCHEM_COORDINATE_TYPE>
2
5
10

$$$$
