66019
  -OEChem-10241302493D

 27 26  0     0  0  0  0  0  0999 V2000
   -1.4912   -1.4239   -0.1268 O   0  0  0  0  0  0  0  0  0  0  0  0
   -2.4235    0.7153   -0.4651 O   0  0  0  0  0  0  0  0  0  0  0  0
    1.4632   -0.1862    1.2149 O   0  0  0  0  0  0  0  0  0  0  0  0
    2.3169    0.0931   -1.0114 O   0  0  0  0  0  0  0  0  0  0  0  0
   -0.0393    0.4080   -0.6567 C   0  0  0  0  0  0  0  0  0  0  0  0
   -1.3184   -0.0154    0.0784 C   0  0  0  0  0  0  0  0  0  0  0  0
    1.2227   -0.3347   -0.1893 C   0  0  0  0  0  0  0  0  0  0  0  0
   -2.6512   -1.9257    0.5238 C   0  0  0  0  0  0  0  0  0  0  0  0
   -2.2927    2.1209   -0.2982 C   0  0  0  0  0  0  0  0  0  0  0  0
    1.6911    1.1488    1.6455 C   0  0  0  0  0  0  0  0  0  0  0  0
    3.5224   -0.6001   -0.7151 C   0  0  0  0  0  0  0  0  0  0  0  0
    0.1388    1.4844   -0.5672 H   0  0  0  0  0  0  0  0  0  0  0  0
   -0.1653    0.2335   -1.7343 H   0  0  0  0  0  0  0  0  0  0  0  0
   -1.2388    0.1807    1.1548 H   0  0  0  0  0  0  0  0  0  0  0  0
    1.0802   -1.4069   -0.3690 H   0  0  0  0  0  0  0  0  0  0  0  0
   -2.6132   -1.7145    1.5968 H   0  0  0  0  0  0  0  0  0  0  0  0
   -2.6792   -3.0098    0.3840 H   0  0  0  0  0  0  0  0  0  0  0  0
   -3.5583   -1.4993    0.0858 H   0  0  0  0  0  0  0  0  0  0  0  0
   -1.6602    2.5475   -1.0813 H   0  0  0  0  0  0  0  0  0  0  0  0
   -1.9131    2.3781    0.6957 H   0  0  0  0  0  0  0  0  0  0  0  0
   -3.2873    2.5634   -0.4080 H   0  0  0  0  0  0  0  0  0  0  0  0
    2.4649    1.6382    1.0475 H   0  0  0  0  0  0  0  0  0  0  0  0
    2.0307    1.1145    2.6846 H   0  0  0  0  0  0  0  0  0  0  0  0
    0.7660    1.7303    1.6156 H   0  0  0  0  0  0  0  0  0  0  0  0
    4.2899   -0.2644   -1.4178 H   0  0  0  0  0  0  0  0  0  0  0  0
    3.3864   -1.6787   -0.8397 H   0  0  0  0  0  0  0  0  0  0  0  0
    3.8658   -0.3782    0.2992 H   0  0  0  0  0  0  0  0  0  0  0  0
  1  6  1  0  0  0  0
  1  8  1  0  0  0  0
  2  6  1  0  0  0  0
  2  9  1  0  0  0  0
  3  7  1  0  0  0  0
  3 10  1  0  0  0  0
  4  7  1  0  0  0  0
  4 11  1  0  0  0  0
  5  6  1  0  0  0  0
  5  7  1  0  0  0  0
  5 12  1  0  0  0  0
  5 13  1  0  0  0  0
  6 14  1  0  0  0  0
  7 15  1  0  0  0  0
  8 16  1  0  0  0  0
  8 17  1  0  0  0  0
  8 18  1  0  0  0  0
  9 19  1  0  0  0  0
  9 20  1  0  0  0  0
  9 21  1  0  0  0  0
 10 22  1  0  0  0  0
 10 23  1  0  0  0  0
 10 24  1  0  0  0  0
 11 25  1  0  0  0  0
 11 26  1  0  0  0  0
 11 27  1  0  0  0  0
M  END
> <PUBCHEM_COMPOUND_CID>
66019

> <PUBCHEM_CONFORMER_RMSD>
0.6

> <PUBCHEM_CONFORMER_DIVERSEORDER>
1
18
5
14
8
20
21
15
7
2
9
16
22
6
10
17
12
19
11
4
13
3

> <PUBCHEM_MMFF94_PARTIAL_CHARGES>
10
1 -0.56
10 0.28
11 0.28
2 -0.56
3 -0.56
4 -0.56
6 0.56
7 0.56
8 0.28
9 0.28

> <PUBCHEM_EFFECTIVE_ROTOR_COUNT>
6

> <PUBCHEM_PHARMACOPHORE_FEATURES>
4
1 1 acceptor
1 2 acceptor
1 3 acceptor
1 4 acceptor

> <PUBCHEM_HEAVY_ATOM_COUNT>
11

> <PUBCHEM_ATOM_DEF_STEREO_COUNT>
0

> <PUBCHEM_ATOM_UDEF_STEREO_COUNT>
0

> <PUBCHEM_BOND_DEF_STEREO_COUNT>
0

> <PUBCHEM_BOND_UDEF_STEREO_COUNT>
0

> <PUBCHEM_ISOTOPIC_ATOM_COUNT>
0

> <PUBCHEM_COMPONENT_COUNT>
1

> <PUBCHEM_CACTVS_TAUTO_COUNT>
1

> <PUBCHEM_CONFORMER_ID>
000101E300000001

> <PUBCHEM_MMFF94_ENERGY>
33.3327

> <PUBCHEM_FEATURE_SELFOVERLAP>
20.37

> <PUBCHEM_SHAPE_FINGERPRINT>
124424 183 17916579826626217734
12716758 59 18411134701822105401
12932741 1 18202274818699720112
12932764 1 17917712447861655038
13380536 127 18041552645689590648
18380122 1 17912912070151818321
20711985 344 18334855039358573507
20715346 28 18131343150454450736
20871998 22 18050289468622322499
21040471 1 18263917735847173373
21061003 4 17203345398300004318
21930827 45 18410852123202479369
23526113 38 17844813585710459982
29004967 10 17132125623696004966
5084963 1 18271253818839940127
53748568 43 17095241393249805082
81228 2 18336538417609740033
88987 49 18188474826821720245

> <PUBCHEM_SHAPE_MULTIPOLES>
202.9
4.83
1.8
1.19
1.59
0.13
0.43
-0.73
-0.68
-1.95
0.2
0.79
0.27
0.96

> <PUBCHEM_SHAPE_SELFOVERLAP>
367.364

> <PUBCHEM_SHAPE_VOLUME>
129.6

> <PUBCHEM_COORDINATE_TYPE>
2
5
10

$$$$
