5464097
  -OEChem-10241303053D

 59 61  0     1  0  0  0  0  0999 V2000
    0.9036    0.8483   -1.8649 O   0  0  0  0  0  0  0  0  0  0  0  0
    2.5658   -2.7269    1.8460 O   0  0  0  0  0  0  0  0  0  0  0  0
    1.8897   -0.5693    2.1345 O   0  0  0  0  0  0  0  0  0  0  0  0
   -1.3335   -2.4248    1.6219 O   0  0  0  0  0  0  0  0  0  0  0  0
   -1.6852   -3.4882   -0.3489 O   0  0  0  0  0  0  0  0  0  0  0  0
    2.5470   -0.0478   -0.4956 N   0  0  0  0  0  0  0  0  0  0  0  0
   -0.6140   -1.3049   -1.6473 N   0  0  0  0  0  0  0  0  0  0  0  0
    4.4632    0.7739    0.5860 C   0  0  1  0  0  0  0  0  0  0  0  0
    3.4585    1.0927   -0.5242 C   0  0  2  0  0  0  0  0  0  0  0  0
    4.6353   -0.7311    0.4368 C   0  0  0  0  0  0  0  0  0  0  0  0
    3.1870   -1.1820    0.1883 C   0  0  1  0  0  0  0  0  0  0  0  0
    5.6840    1.6661    0.4617 C   0  0  0  0  0  0  0  0  0  0  0  0
    2.9089    2.4958   -0.2891 C   0  0  0  0  0  0  0  0  0  0  0  0
    5.2382    3.1290    0.6057 C   0  0  0  0  0  0  0  0  0  0  0  0
    4.0713    3.5029   -0.3222 C   0  0  0  0  0  0  0  0  0  0  0  0
    1.4193   -0.1200   -1.3034 C   0  0  0  0  0  0  0  0  0  0  0  0
    2.4739   -1.4238    1.4849 C   0  0  0  0  0  0  0  0  0  0  0  0
    0.8168   -1.4921   -1.4795 C   0  0  2  0  0  0  0  0  0  0  0  0
    1.4239   -2.1719   -2.6898 C   0  0  0  0  0  0  0  0  0  0  0  0
   -1.2695   -1.0891   -0.3630 C   0  0  1  0  0  0  0  0  0  0  0  0
   -2.6174   -0.3915   -0.5938 C   0  0  0  0  0  0  0  0  0  0  0  0
   -1.4617   -2.4556    0.2710 C   0  0  0  0  0  0  0  0  0  0  0  0
   -3.4040   -0.0850    0.6902 C   0  0  0  0  0  0  0  0  0  0  0  0
   -4.6926    0.6689    0.4699 C   0  0  0  0  0  0  0  0  0  0  0  0
   -4.6951    2.0637    0.4809 C   0  0  0  0  0  0  0  0  0  0  0  0
   -5.8811   -0.0290    0.2545 C   0  0  0  0  0  0  0  0  0  0  0  0
   -5.8860    2.7607    0.2770 C   0  0  0  0  0  0  0  0  0  0  0  0
   -7.0719    0.6681    0.0506 C   0  0  0  0  0  0  0  0  0  0  0  0
   -7.0743    2.0629    0.0618 C   0  0  0  0  0  0  0  0  0  0  0  0
    4.0086    0.9611    1.5704 H   0  0  0  0  0  0  0  0  0  0  0  0
    3.9426    1.0606   -1.5111 H   0  0  0  0  0  0  0  0  0  0  0  0
    5.2588   -0.9604   -0.4358 H   0  0  0  0  0  0  0  0  0  0  0  0
    5.0901   -1.1897    1.3203 H   0  0  0  0  0  0  0  0  0  0  0  0
    3.1616   -2.0822   -0.4300 H   0  0  0  0  0  0  0  0  0  0  0  0
    6.4185    1.4226    1.2371 H   0  0  0  0  0  0  0  0  0  0  0  0
    6.1736    1.5206   -0.5086 H   0  0  0  0  0  0  0  0  0  0  0  0
    2.1806    2.7747   -1.0563 H   0  0  0  0  0  0  0  0  0  0  0  0
    2.3900    2.5499    0.6757 H   0  0  0  0  0  0  0  0  0  0  0  0
    6.0883    3.7935    0.4137 H   0  0  0  0  0  0  0  0  0  0  0  0
    4.9294    3.3045    1.6440 H   0  0  0  0  0  0  0  0  0  0  0  0
    3.6998    4.4999   -0.0594 H   0  0  0  0  0  0  0  0  0  0  0  0
    4.4501    3.5688   -1.3501 H   0  0  0  0  0  0  0  0  0  0  0  0
    0.9989   -2.1379   -0.6185 H   0  0  0  0  0  0  0  0  0  0  0  0
   -1.0373   -2.0950   -2.1327 H   0  0  0  0  0  0  0  0  0  0  0  0
    1.0116   -3.1780   -2.8249 H   0  0  0  0  0  0  0  0  0  0  0  0
    2.5110   -2.2654   -2.6007 H   0  0  0  0  0  0  0  0  0  0  0  0
    1.2301   -1.6041   -3.6078 H   0  0  0  0  0  0  0  0  0  0  0  0
    2.1042   -2.9057    2.6929 H   0  0  0  0  0  0  0  0  0  0  0  0
   -0.6598   -0.4635    0.3004 H   0  0  0  0  0  0  0  0  0  0  0  0
   -3.2489   -1.0087   -1.2482 H   0  0  0  0  0  0  0  0  0  0  0  0
   -2.4440    0.5494   -1.1340 H   0  0  0  0  0  0  0  0  0  0  0  0
   -3.6361   -1.0177    1.2193 H   0  0  0  0  0  0  0  0  0  0  0  0
   -2.7690    0.4895    1.3775 H   0  0  0  0  0  0  0  0  0  0  0  0
   -1.4481   -3.3136    2.0206 H   0  0  0  0  0  0  0  0  0  0  0  0
   -3.7752    2.6184    0.6453 H   0  0  0  0  0  0  0  0  0  0  0  0
   -5.8914   -1.1156    0.2414 H   0  0  0  0  0  0  0  0  0  0  0  0
   -5.8879    3.8468    0.2850 H   0  0  0  0  0  0  0  0  0  0  0  0
   -7.9972    0.1249   -0.1177 H   0  0  0  0  0  0  0  0  0  0  0  0
   -8.0015    2.6056   -0.0974 H   0  0  0  0  0  0  0  0  0  0  0  0
  1 16  2  0  0  0  0
  2 17  1  0  0  0  0
  2 48  1  0  0  0  0
  3 17  2  0  0  0  0
  4 22  1  0  0  0  0
  4 54  1  0  0  0  0
  5 22  2  0  0  0  0
  6  9  1  0  0  0  0
  6 11  1  0  0  0  0
  6 16  1  0  0  0  0
  7 18  1  0  0  0  0
  7 20  1  0  0  0  0
  7 44  1  0  0  0  0
  8  9  1  0  0  0  0
  8 10  1  0  0  0  0
  8 12  1  0  0  0  0
  8 30  1  0  0  0  0
  9 13  1  0  0  0  0
  9 31  1  0  0  0  0
 10 11  1  0  0  0  0
 10 32  1  0  0  0  0
 10 33  1  0  0  0  0
 11 17  1  0  0  0  0
 11 34  1  0  0  0  0
 12 14  1  0  0  0  0
 12 35  1  0  0  0  0
 12 36  1  0  0  0  0
 13 15  1  0  0  0  0
 13 37  1  0  0  0  0
 13 38  1  0  0  0  0
 14 15  1  0  0  0  0
 14 39  1  0  0  0  0
 14 40  1  0  0  0  0
 15 41  1  0  0  0  0
 15 42  1  0  0  0  0
 16 18  1  0  0  0  0
 18 19  1  0  0  0  0
 18 43  1  0  0  0  0
 19 45  1  0  0  0  0
 19 46  1  0  0  0  0
 19 47  1  0  0  0  0
 20 21  1  0  0  0  0
 20 22  1  0  0  0  0
 20 49  1  0  0  0  0
 21 23  1  0  0  0  0
 21 50  1  0  0  0  0
 21 51  1  0  0  0  0
 23 24  1  0  0  0  0
 23 52  1  0  0  0  0
 23 53  1  0  0  0  0
 24 25  2  0  0  0  0
 24 26  1  0  0  0  0
 25 27  1  0  0  0  0
 25 55  1  0  0  0  0
 26 28  2  0  0  0  0
 26 56  1  0  0  0  0
 27 29  2  0  0  0  0
 27 57  1  0  0  0  0
 28 29  1  0  0  0  0
 28 58  1  0  0  0  0
 29 59  1  0  0  0  0
M  END
> <PUBCHEM_COMPOUND_CID>
5464097

> <PUBCHEM_CONFORMER_RMSD>
1

> <PUBCHEM_CONFORMER_DIVERSEORDER>
1
72
32
69
10
60
61
68
75
36
19
71
27
64
66
9
11
14
13
67
74
23
37
41
77
70
62
65
21
73
38
8
26
49
16
35
51
33
24
42
22
39
15
57
46
76
53
56
55
58
45
29
31
59
7
50
40
4
43
25
17
6
34
20
44
18
63
28
30
52
47
48
5
3
12
2
54

> <PUBCHEM_MMFF94_PARTIAL_CHARGES>
29
1 -0.57
11 0.36
16 0.57
17 0.66
18 0.33
2 -0.65
20 0.33
22 0.66
23 0.14
24 -0.14
25 -0.15
26 -0.15
27 -0.15
28 -0.15
29 -0.15
3 -0.57
4 -0.65
44 0.36
48 0.5
5 -0.57
54 0.5
55 0.15
56 0.15
57 0.15
58 0.15
59 0.15
6 -0.66
7 -0.9
9 0.3

> <PUBCHEM_EFFECTIVE_ROTOR_COUNT>
10.4

> <PUBCHEM_PHARMACOPHORE_FEATURES>
12
1 1 acceptor
1 2 acceptor
1 3 acceptor
1 4 acceptor
1 5 acceptor
1 7 cation
1 7 donor
3 2 3 17 anion
3 4 5 22 anion
5 6 8 9 10 11 rings
6 24 25 26 27 28 29 rings
6 8 9 12 13 14 15 rings

> <PUBCHEM_HEAVY_ATOM_COUNT>
29

> <PUBCHEM_ATOM_DEF_STEREO_COUNT>
5

> <PUBCHEM_ATOM_UDEF_STEREO_COUNT>
0

> <PUBCHEM_BOND_DEF_STEREO_COUNT>
0

> <PUBCHEM_BOND_UDEF_STEREO_COUNT>
0

> <PUBCHEM_ISOTOPIC_ATOM_COUNT>
0

> <PUBCHEM_COMPONENT_COUNT>
1

> <PUBCHEM_CACTVS_TAUTO_COUNT>
1

> <PUBCHEM_CONFORMER_ID>
0053602100000001

> <PUBCHEM_MMFF94_ENERGY>
64.0685

> <PUBCHEM_FEATURE_SELFOVERLAP>
61.084

> <PUBCHEM_SHAPE_FINGERPRINT>
10674148 151 18337957887876242156
117089 54 12614403821845511136
12107183 9 18337945706494162642
12596602 18 18407477773825390193
12633257 1 18115009888418496146
12788726 201 17775291534269425617
13965767 371 18259703380486501407
14251751 18 8574445217738532769
14251764 30 8574711291447998281
14347332 77 10159436296216855965
14951699 99 18188216519110114492
15238133 3 18333740138868478508
15799311 1 8790592772016669461
19438510 23 18339919428328443760
1979834 28 15864070936260505817
20511986 3 18342446071789664781
20715895 44 18343586222065608264
21033650 10 13542201458952074707
21315764 268 18262235521896660933
22950370 63 8934995971887562895
23559900 14 18128268791764204047
25223398 141 16056021592973052820
2838139 119 18272929457586731509
3411729 13 18410014346940023428
3472631 163 18411699898244031955
34797466 226 18059300856050016733
392239 28 17387672020622677160
5104073 3 17968088776348614866
5109719 28 18340781351831182297
513532 50 18337401422041569190
57527293 21 15430877778013131168
58260988 393 18047759487718674867
6371380 46 18335994077692389150
7808743 9 18271241724554783083

> <PUBCHEM_SHAPE_MULTIPOLES>
557.5
15.77
3.85
1.66
22.5
0.77
0.32
15.66
-3.2
-1.81
-0.09
-1.3
-1.34
-0.37

> <PUBCHEM_SHAPE_SELFOVERLAP>
1166.732

> <PUBCHEM_SHAPE_VOLUME>
314.3

> <PUBCHEM_COORDINATE_TYPE>
2
5
10

$$$$
