4350931
  -OEChem-10241303103D

 44 47  0     1  0  0  0  0  0999 V2000
   -0.8662   -2.1761   -0.6086 N   0  0  2  0  0  0  0  0  0  0  0  0
    1.2840    1.7179    0.5269 N   0  0  0  0  0  0  0  0  0  0  0  0
    1.1817   -0.4756    0.9084 C   0  0  0  0  0  0  0  0  0  0  0  0
    0.7289   -1.8385    1.3377 C   0  0  0  0  0  0  0  0  0  0  0  0
    0.4982    0.7227    1.0569 C   0  0  0  0  0  0  0  0  0  0  0  0
    0.2640   -2.7204    0.1717 C   0  0  0  0  0  0  0  0  0  0  0  0
   -0.8268    1.0489    1.6678 C   0  0  0  0  0  0  0  0  0  0  0  0
    2.4295   -0.1697    0.2655 C   0  0  0  0  0  0  0  0  0  0  0  0
   -2.1751   -2.4481    0.0185 C   0  0  0  0  0  0  0  0  0  0  0  0
   -2.6633   -1.3470    0.9729 C   0  0  0  0  0  0  0  0  0  0  0  0
   -1.9489    1.1125    0.6528 C   0  0  0  0  0  0  0  0  0  0  0  0
    2.4585    1.2048    0.0372 C   0  0  0  0  0  0  0  0  0  0  0  0
   -2.7818    0.0195    0.3312 C   0  0  0  0  0  0  0  0  0  0  0  0
    3.5396   -0.9398   -0.1439 C   0  0  0  0  0  0  0  0  0  0  0  0
   -0.8427   -2.7607   -1.9562 C   0  0  0  0  0  0  0  0  0  0  0  0
   -2.1471    2.3382   -0.0167 C   0  0  0  0  0  0  0  0  0  0  0  0
    3.5349    1.8509   -0.5814 C   0  0  0  0  0  0  0  0  0  0  0  0
   -3.7918    0.1972   -0.6366 C   0  0  0  0  0  0  0  0  0  0  0  0
    4.6243   -0.3099   -0.7646 C   0  0  0  0  0  0  0  0  0  0  0  0
    4.6195    1.0657   -0.9797 C   0  0  0  0  0  0  0  0  0  0  0  0
   -3.1472    2.4899   -0.9752 C   0  0  0  0  0  0  0  0  0  0  0  0
   -3.9721    1.4178   -1.2845 C   0  0  0  0  0  0  0  0  0  0  0  0
    1.5749   -2.3401    1.8269 H   0  0  0  0  0  0  0  0  0  0  0  0
   -0.0391   -1.7707    2.1111 H   0  0  0  0  0  0  0  0  0  0  0  0
    1.1311   -2.8437   -0.4917 H   0  0  0  0  0  0  0  0  0  0  0  0
    0.0359   -3.7287    0.5412 H   0  0  0  0  0  0  0  0  0  0  0  0
   -0.7585    2.0214    2.1764 H   0  0  0  0  0  0  0  0  0  0  0  0
   -1.0617    0.3542    2.4790 H   0  0  0  0  0  0  0  0  0  0  0  0
   -2.1719   -3.4128    0.5424 H   0  0  0  0  0  0  0  0  0  0  0  0
   -2.9429   -2.5526   -0.7607 H   0  0  0  0  0  0  0  0  0  0  0  0
   -2.0585   -1.3261    1.8777 H   0  0  0  0  0  0  0  0  0  0  0  0
   -3.6635   -1.6271    1.3330 H   0  0  0  0  0  0  0  0  0  0  0  0
    1.0325    2.6964    0.5027 H   0  0  0  0  0  0  0  0  0  0  0  0
    3.5608   -2.0141    0.0167 H   0  0  0  0  0  0  0  0  0  0  0  0
   -1.6362   -2.3307   -2.5781 H   0  0  0  0  0  0  0  0  0  0  0  0
   -0.9665   -3.8496   -1.9348 H   0  0  0  0  0  0  0  0  0  0  0  0
    0.0997   -2.5263   -2.4642 H   0  0  0  0  0  0  0  0  0  0  0  0
   -1.5135    3.1931    0.2111 H   0  0  0  0  0  0  0  0  0  0  0  0
    3.5317    2.9231   -0.7469 H   0  0  0  0  0  0  0  0  0  0  0  0
   -4.4532   -0.6282   -0.8921 H   0  0  0  0  0  0  0  0  0  0  0  0
    5.4787   -0.9022   -1.0810 H   0  0  0  0  0  0  0  0  0  0  0  0
    5.4716    1.5368   -1.4629 H   0  0  0  0  0  0  0  0  0  0  0  0
   -3.2808    3.4440   -1.4760 H   0  0  0  0  0  0  0  0  0  0  0  0
   -4.7559    1.5286   -2.0277 H   0  0  0  0  0  0  0  0  0  0  0  0
  1  6  1  0  0  0  0
  1  9  1  0  0  0  0
  1 15  1  0  0  0  0
  2  5  1  0  0  0  0
  2 12  1  0  0  0  0
  2 33  1  0  0  0  0
  3  4  1  0  0  0  0
  3  5  2  0  0  0  0
  3  8  1  0  0  0  0
  4  6  1  0  0  0  0
  4 23  1  0  0  0  0
  4 24  1  0  0  0  0
  5  7  1  0  0  0  0
  6 25  1  0  0  0  0
  6 26  1  0  0  0  0
  7 11  1  0  0  0  0
  7 27  1  0  0  0  0
  7 28  1  0  0  0  0
  8 12  1  0  0  0  0
  8 14  2  0  0  0  0
  9 10  1  0  0  0  0
  9 29  1  0  0  0  0
  9 30  1  0  0  0  0
 10 13  1  0  0  0  0
 10 31  1  0  0  0  0
 10 32  1  0  0  0  0
 11 13  1  0  0  0  0
 11 16  2  0  0  0  0
 12 17  2  0  0  0  0
 13 18  2  0  0  0  0
 14 19  1  0  0  0  0
 14 34  1  0  0  0  0
 15 35  1  0  0  0  0
 15 36  1  0  0  0  0
 15 37  1  0  0  0  0
 16 21  1  0  0  0  0
 16 38  1  0  0  0  0
 17 20  1  0  0  0  0
 17 39  1  0  0  0  0
 18 22  1  0  0  0  0
 18 40  1  0  0  0  0
 19 20  2  0  0  0  0
 19 41  1  0  0  0  0
 20 42  1  0  0  0  0
 21 22  2  0  0  0  0
 21 43  1  0  0  0  0
 22 44  1  0  0  0  0
M  END
> <PUBCHEM_COMPOUND_CID>
4350931

> <PUBCHEM_CONFORMER_RMSD>
0.6

> <PUBCHEM_CONFORMER_DIVERSEORDER>
1
5
3
6
10
2
9
7
4
8

> <PUBCHEM_MMFF94_PARTIAL_CHARGES>
30
1 -0.81
10 0.14
11 -0.14
12 -0.15
13 -0.14
14 -0.15
15 0.27
16 -0.15
17 -0.15
18 -0.15
19 -0.15
2 0.03
20 -0.15
21 -0.15
22 -0.15
3 -0.18
33 0.27
34 0.15
38 0.15
39 0.15
4 0.18
40 0.15
41 0.15
42 0.15
43 0.15
44 0.15
5 -0.33
6 0.27
7 0.32
9 0.27

> <PUBCHEM_EFFECTIVE_ROTOR_COUNT>
1.2

> <PUBCHEM_PHARMACOPHORE_FEATURES>
6
1 1 cation
1 2 cation
1 2 donor
5 2 3 5 8 12 rings
6 11 13 16 18 21 22 rings
6 8 12 14 17 19 20 rings

> <PUBCHEM_HEAVY_ATOM_COUNT>
22

> <PUBCHEM_ATOM_DEF_STEREO_COUNT>
0

> <PUBCHEM_ATOM_UDEF_STEREO_COUNT>
0

> <PUBCHEM_BOND_DEF_STEREO_COUNT>
0

> <PUBCHEM_BOND_UDEF_STEREO_COUNT>
0

> <PUBCHEM_ISOTOPIC_ATOM_COUNT>
0

> <PUBCHEM_COMPONENT_COUNT>
1

> <PUBCHEM_CACTVS_TAUTO_COUNT>
1

> <PUBCHEM_CONFORMER_ID>
004263D300000001

> <PUBCHEM_MMFF94_ENERGY>
54.228

> <PUBCHEM_FEATURE_SELFOVERLAP>
30.537

> <PUBCHEM_SHAPE_FINGERPRINT>
10498660 4 18261103110623679429
10759866 29 18187079529481266122
107951 10 17967819331955160115
10863032 1 17822289046449152939
10948715 1 18041559139933323707
11370993 70 18336542733429497452
11961588 58 18114446942781134733
13583140 156 17531539697800642024
14251751 93 18408042922432886030
14251757 17 18129117640410242358
15210252 30 17539657585569753261
16752209 62 18342163484178820307
16945 1 18335976485289300731
17357779 13 17840852299098591655
17492 54 18265874974488652775
18186145 218 18411430496589403520
19862831 5 18342736295377159752
20645476 183 18259979362448135339
20775438 99 16766148947816537271
20775530 9 14258222310871168789
21634736 98 18268432523969994320
22393880 68 18335417937619471516
22907989 373 18410572933370066093
23227448 37 18260833734342897423
23557571 272 16371878178515809337
23559900 14 18202566203200029320
23566358 2 18342471313301862126
238 59 18051100672006638269
26353 1 17121390236696371135
2748010 2 18125426764632959011
3060560 45 18263919952092691132
4028521 119 18334295387475857292
5283173 99 18410575132805089624
53917941 68 18262513818850325072
90525 40 18340486677454060763

> <PUBCHEM_SHAPE_MULTIPOLES>
442.79
7.73
3.21
1.41
4.7
1.27
0.12
-3.61
3.17
-1.66
0.8
-0.42
0.28
0.08

> <PUBCHEM_SHAPE_SELFOVERLAP>
966.954

> <PUBCHEM_SHAPE_VOLUME>
240.9

> <PUBCHEM_COORDINATE_TYPE>
2
5
10

$$$$
