68504
  -OEChem-10241303093D

 18 18  0     0  0  0  0  0  0999 V2000
    3.3870   -0.3969   -0.0002 Br  0  0  0  0  0  0  0  0  0  0  0  0
   -0.7554   -0.7986    0.0000 C   0  0  0  0  0  0  0  0  0  0  0  0
   -1.2014    0.5230    0.0000 C   0  0  0  0  0  0  0  0  0  0  0  0
    0.6123   -1.0732    0.0001 C   0  0  0  0  0  0  0  0  0  0  0  0
   -0.2800    1.5702    0.0000 C   0  0  0  0  0  0  0  0  0  0  0  0
   -1.7234   -1.9358    0.0000 C   0  0  0  0  0  0  0  0  0  0  0  0
   -2.6604    0.8416   -0.0001 C   0  0  0  0  0  0  0  0  0  0  0  0
    1.5338   -0.0260    0.0001 C   0  0  0  0  0  0  0  0  0  0  0  0
    1.0875    1.2957    0.0000 C   0  0  0  0  0  0  0  0  0  0  0  0
    0.9610   -2.1035    0.0001 H   0  0  0  0  0  0  0  0  0  0  0  0
   -0.6104    2.6055    0.0000 H   0  0  0  0  0  0  0  0  0  0  0  0
   -1.2121   -2.9048    0.0000 H   0  0  0  0  0  0  0  0  0  0  0  0
   -2.3551   -1.9046    0.8936 H   0  0  0  0  0  0  0  0  0  0  0  0
   -2.3550   -1.9046   -0.8938 H   0  0  0  0  0  0  0  0  0  0  0  0
   -3.1443    0.4345    0.8936 H   0  0  0  0  0  0  0  0  0  0  0  0
   -2.8397    1.9226   -0.0001 H   0  0  0  0  0  0  0  0  0  0  0  0
   -3.1442    0.4346   -0.8939 H   0  0  0  0  0  0  0  0  0  0  0  0
    1.7924    2.1231    0.0000 H   0  0  0  0  0  0  0  0  0  0  0  0
  1  8  1  0  0  0  0
  2  3  2  0  0  0  0
  2  4  1  0  0  0  0
  2  6  1  0  0  0  0
  3  5  1  0  0  0  0
  3  7  1  0  0  0  0
  4  8  2  0  0  0  0
  4 10  1  0  0  0  0
  5  9  2  0  0  0  0
  5 11  1  0  0  0  0
  6 12  1  0  0  0  0
  6 13  1  0  0  0  0
  6 14  1  0  0  0  0
  7 15  1  0  0  0  0
  7 16  1  0  0  0  0
  7 17  1  0  0  0  0
  8  9  1  0  0  0  0
  9 18  1  0  0  0  0
M  END
> <PUBCHEM_COMPOUND_CID>
68504

> <PUBCHEM_CONFORMER_RMSD>
0.4

> <PUBCHEM_CONFORMER_DIVERSEORDER>
1

> <PUBCHEM_MMFF94_PARTIAL_CHARGES>
12
1 -0.11
10 0.15
11 0.15
18 0.15
2 -0.14
3 -0.14
4 -0.15
5 -0.15
6 0.14
7 0.14
8 0.11
9 -0.15

> <PUBCHEM_EFFECTIVE_ROTOR_COUNT>
0

> <PUBCHEM_PHARMACOPHORE_FEATURES>
2
1 1 hydrophobe
6 2 3 4 5 8 9 rings

> <PUBCHEM_HEAVY_ATOM_COUNT>
9

> <PUBCHEM_ATOM_DEF_STEREO_COUNT>
0

> <PUBCHEM_ATOM_UDEF_STEREO_COUNT>
0

> <PUBCHEM_BOND_DEF_STEREO_COUNT>
0

> <PUBCHEM_BOND_UDEF_STEREO_COUNT>
0

> <PUBCHEM_ISOTOPIC_ATOM_COUNT>
0

> <PUBCHEM_COMPONENT_COUNT>
1

> <PUBCHEM_CACTVS_TAUTO_COUNT>
1

> <PUBCHEM_CONFORMER_ID>
00010B9800000001

> <PUBCHEM_MMFF94_ENERGY>
20.7504

> <PUBCHEM_FEATURE_SELFOVERLAP>
10.148

> <PUBCHEM_SHAPE_FINGERPRINT>
13024252 1 15936699185359944840
14128692 85 18337115686694001892
15310529 11 16588302727000823760
16945 1 18410575041824312160
18185500 45 18408038515696142018
193761 8 18122626320969482661
20871998 184 18201440306686281782
21040471 1 18338797818982932037
23235685 24 18340482257790476672
23402655 69 17978209592758748429
23552423 10 18116152345271244868
2748010 2 18267300013744434420
369184 2 18336261267427700090
5084963 1 18200598136545226402

> <PUBCHEM_SHAPE_MULTIPOLES>
191.16
3.94
1.8
0.63
2.26
0.27
0
0.33
0
-0.79
0
0.05
0.01
0

> <PUBCHEM_SHAPE_SELFOVERLAP>
378.766

> <PUBCHEM_SHAPE_VOLUME>
116.4

> <PUBCHEM_COORDINATE_TYPE>
2
5
10

$$$$
