276096
  -OEChem-10241303003D

 10 10  0     0  0  0  0  0  0999 V2000
   -2.3615   -2.1180    0.0001 I   0  0  0  0  0  0  0  0  0  0  0  0
   -2.3403    2.1410    0.0002 I   0  0  0  0  0  0  0  0  0  0  0  0
    1.2561   -1.3385    1.0801 F   0  0  0  0  0  0  0  0  0  0  0  0
    1.2558   -1.3391   -1.0801 F   0  0  0  0  0  0  0  0  0  0  0  0
    1.2717    1.3264    1.0782 F   0  0  0  0  0  0  0  0  0  0  0  0
    1.2700    1.3276   -1.0787 F   0  0  0  0  0  0  0  0  0  0  0  0
    0.6624   -0.7745   -0.0002 C   0  0  0  0  0  0  0  0  0  0  0  0
    0.6700    0.7672    0.0000 C   0  0  0  0  0  0  0  0  0  0  0  0
   -0.8455   -0.6682   -0.0004 C   0  0  0  0  0  0  0  0  0  0  0  0
   -0.8387    0.6762    0.0009 C   0  0  0  0  0  0  0  0  0  0  0  0
  1  9  1  0  0  0  0
  2 10  1  0  0  0  0
  3  7  1  0  0  0  0
  4  7  1  0  0  0  0
  5  8  1  0  0  0  0
  6  8  1  0  0  0  0
  7  8  1  0  0  0  0
  7  9  1  0  0  0  0
  8 10  1  0  0  0  0
  9 10  2  0  0  0  0
M  END
> <PUBCHEM_COMPOUND_CID>
276096

> <PUBCHEM_CONFORMER_RMSD>
0.4

> <PUBCHEM_CONFORMER_DIVERSEORDER>
1

> <PUBCHEM_MMFF94_PARTIAL_CHARGES>
10
1 -0.04
10 -0.1
2 -0.04
3 -0.3
4 -0.3
5 -0.3
6 -0.3
7 0.73
8 0.73
9 -0.1

> <PUBCHEM_EFFECTIVE_ROTOR_COUNT>
0.4

> <PUBCHEM_PHARMACOPHORE_FEATURES>
3
1 1 hydrophobe
1 2 hydrophobe
4 7 8 9 10 rings

> <PUBCHEM_HEAVY_ATOM_COUNT>
10

> <PUBCHEM_ATOM_DEF_STEREO_COUNT>
0

> <PUBCHEM_ATOM_UDEF_STEREO_COUNT>
0

> <PUBCHEM_BOND_DEF_STEREO_COUNT>
0

> <PUBCHEM_BOND_UDEF_STEREO_COUNT>
0

> <PUBCHEM_ISOTOPIC_ATOM_COUNT>
0

> <PUBCHEM_COMPONENT_COUNT>
1

> <PUBCHEM_CACTVS_TAUTO_COUNT>
1

> <PUBCHEM_CONFORMER_ID>
0004368000000001

> <PUBCHEM_MMFF94_ENERGY>
2.9544

> <PUBCHEM_FEATURE_SELFOVERLAP>
15.223

> <PUBCHEM_SHAPE_FINGERPRINT>
12423570 1 9270237590428159774
161256 15 18199200644608209463
16945 1 18410855468855246435
21040471 1 18338516335579972997
241688 4 18123490507239075713
2748010 2 18340490088038194351
5084963 1 18192997247058929448
68250623 7 18407758136099752162

> <PUBCHEM_SHAPE_MULTIPOLES>
200.57
2.88
2.8
0.96
1.15
0.04
0
-0.02
0
2.06
0
-0.33
0
0

> <PUBCHEM_SHAPE_SELFOVERLAP>
372.55

> <PUBCHEM_SHAPE_VOLUME>
132.8

> <PUBCHEM_COORDINATE_TYPE>
2
5
10

$$$$
