104993
  -OEChem-10241303123D

 32 34  0     1  0  0  0  0  0999 V2000
   -0.1095   -1.6575   -0.5794 P   0  0  1  0  0  0  0  0  0  0  0  0
   -1.2710   -2.3583    0.3020 O   0  0  0  0  0  0  0  0  0  0  0  0
   -0.8616   -0.4008   -1.2601 O   0  0  0  0  0  0  0  0  0  0  0  0
    0.8646   -0.9813    0.5230 O   0  0  0  0  0  0  0  0  0  0  0  0
    0.5849   -2.5776   -1.5402 O   0  0  0  0  0  0  0  0  0  0  0  0
   -2.4906   -0.2680    0.5334 C   0  0  0  0  0  0  0  0  0  0  0  0
   -2.0219   -1.5382    1.1889 C   0  0  0  0  0  0  0  0  0  0  0  0
   -1.8923    0.2417   -0.6260 C   0  0  0  0  0  0  0  0  0  0  0  0
   -3.5351    0.4587    1.1224 C   0  0  0  0  0  0  0  0  0  0  0  0
    1.9247   -0.1834    0.1876 C   0  0  0  0  0  0  0  0  0  0  0  0
   -2.3420    1.4309   -1.2027 C   0  0  0  0  0  0  0  0  0  0  0  0
    2.7311    0.3733    1.1760 C   0  0  0  0  0  0  0  0  0  0  0  0
   -3.9834    1.6515    0.5515 C   0  0  0  0  0  0  0  0  0  0  0  0
   -3.3887    2.1354   -0.6118 C   0  0  0  0  0  0  0  0  0  0  0  0
    2.1856    0.0638   -1.1571 C   0  0  0  0  0  0  0  0  0  0  0  0
    3.8076    1.1844    0.8168 C   0  0  0  0  0  0  0  0  0  0  0  0
    2.4621    0.1154    2.6216 C   0  0  0  0  0  0  0  0  0  0  0  0
    3.2622    0.8748   -1.5163 C   0  0  0  0  0  0  0  0  0  0  0  0
    4.0731    1.4352   -0.5294 C   0  0  0  0  0  0  0  0  0  0  0  0
   -1.4021   -1.3030    2.0605 H   0  0  0  0  0  0  0  0  0  0  0  0
   -2.8814   -2.1288    1.5221 H   0  0  0  0  0  0  0  0  0  0  0  0
   -4.0086    0.0973    2.0321 H   0  0  0  0  0  0  0  0  0  0  0  0
   -1.8790    1.8146   -2.1079 H   0  0  0  0  0  0  0  0  0  0  0  0
   -4.7962    2.2026    1.0155 H   0  0  0  0  0  0  0  0  0  0  0  0
   -3.7388    3.0625   -1.0559 H   0  0  0  0  0  0  0  0  0  0  0  0
    1.5922   -0.3360   -1.9696 H   0  0  0  0  0  0  0  0  0  0  0  0
    4.4492    1.6285    1.5732 H   0  0  0  0  0  0  0  0  0  0  0  0
    2.5427   -0.9550    2.8376 H   0  0  0  0  0  0  0  0  0  0  0  0
    3.1731    0.6381    3.2703 H   0  0  0  0  0  0  0  0  0  0  0  0
    1.4577    0.4606    2.8888 H   0  0  0  0  0  0  0  0  0  0  0  0
    3.4690    1.0717   -2.5642 H   0  0  0  0  0  0  0  0  0  0  0  0
    4.9110    2.0669   -0.8093 H   0  0  0  0  0  0  0  0  0  0  0  0
  1  2  1  0  0  0  0
  1  3  1  0  0  0  0
  1  4  1  0  0  0  0
  1  5  2  0  0  0  0
  2  7  1  0  0  0  0
  3  8  1  0  0  0  0
  4 10  1  0  0  0  0
  6  7  1  0  0  0  0
  6  8  1  0  0  0  0
  6  9  2  0  0  0  0
  7 20  1  0  0  0  0
  7 21  1  0  0  0  0
  8 11  2  0  0  0  0
  9 13  1  0  0  0  0
  9 22  1  0  0  0  0
 10 12  1  0  0  0  0
 10 15  2  0  0  0  0
 11 14  1  0  0  0  0
 11 23  1  0  0  0  0
 12 16  2  0  0  0  0
 12 17  1  0  0  0  0
 13 14  2  0  0  0  0
 13 24  1  0  0  0  0
 14 25  1  0  0  0  0
 15 18  1  0  0  0  0
 15 26  1  0  0  0  0
 16 19  1  0  0  0  0
 16 27  1  0  0  0  0
 17 28  1  0  0  0  0
 17 29  1  0  0  0  0
 17 30  1  0  0  0  0
 18 19  2  0  0  0  0
 18 31  1  0  0  0  0
 19 32  1  0  0  0  0
M  END
> <PUBCHEM_COMPOUND_CID>
104993

> <PUBCHEM_CONFORMER_RMSD>
0.6

> <PUBCHEM_CONFORMER_DIVERSEORDER>
1
12
7
13
22
17
25
28
19
2
18
6
27
14
3
9
5
21
11
8
4
10
23
15
24
26
16
29
20

> <PUBCHEM_MMFF94_PARTIAL_CHARGES>
27
1 1.51
10 0.08
11 -0.15
12 -0.14
13 -0.15
14 -0.15
15 -0.15
16 -0.15
17 0.14
18 -0.15
19 -0.15
2 -0.55
22 0.15
23 0.15
24 0.15
25 0.15
26 0.15
27 0.15
3 -0.35
31 0.15
32 0.15
4 -0.35
5 -0.7
6 -0.14
7 0.42
8 0.08
9 -0.15

> <PUBCHEM_EFFECTIVE_ROTOR_COUNT>
2.6

> <PUBCHEM_PHARMACOPHORE_FEATURES>
4
1 5 acceptor
6 1 2 3 6 7 8 rings
6 10 12 15 16 18 19 rings
6 6 8 9 11 13 14 rings

> <PUBCHEM_HEAVY_ATOM_COUNT>
19

> <PUBCHEM_ATOM_DEF_STEREO_COUNT>
0

> <PUBCHEM_ATOM_UDEF_STEREO_COUNT>
1

> <PUBCHEM_BOND_DEF_STEREO_COUNT>
0

> <PUBCHEM_BOND_UDEF_STEREO_COUNT>
0

> <PUBCHEM_ISOTOPIC_ATOM_COUNT>
0

> <PUBCHEM_COMPONENT_COUNT>
1

> <PUBCHEM_CACTVS_TAUTO_COUNT>
1

> <PUBCHEM_CONFORMER_ID>
00019A2100000001

> <PUBCHEM_MMFF94_ENERGY>
48.6381

> <PUBCHEM_FEATURE_SELFOVERLAP>
20.322

> <PUBCHEM_SHAPE_FINGERPRINT>
10165383 225 17914084055026286587
10498660 4 18201997716248162953
12251169 10 17240199928187366101
12553582 1 9799406784316470325
12633257 1 17096356242253502153
12892183 10 16515691013631332753
13134695 92 17413019890415648966
13583140 156 16370722643171113341
13681431 1 17411068235675085278
13693222 15 14273728594845906764
13764800 53 18411425028784532929
13965767 371 17822847568233627204
14341114 328 17240775007123559488
14787075 74 15874235135169886158
14957384 54 18040425569004192764
1798214 55 18341614793437901697
18186145 218 17489870440279960784
18219364 16 17846224400672718394
18981168 100 18273216408530446442
19862831 5 14908180837124636317
20361792 2 10737293415576557387
21427221 339 17531517698994164224
21524375 3 18341320120179560967
21731228 192 18260260820134070507
21756936 100 17315373655039607044
21864079 5 18337668715162816764
23493267 7 18333457542778332448
23559900 14 17752217089054588103
238 59 16702302351694940212
25 1 17346330288411872566
27216 239 18337952410584436817
3797600 57 17750252433178967552
392239 28 16520777573253877296
474 4 18193835947283329341
5161694 15 17775298178899699852
633830 44 17131565963265526281
6442390 28 18201730590915456863
6669772 16 10955472828751902674
7097593 13 17240751853223340304
7808743 9 18337116777605775716
81228 2 17625812043609801006
90316 7 17095243601301118677

> <PUBCHEM_SHAPE_MULTIPOLES>
371.38
7.55
2.22
1.81
0.84
0.64
-0.56
-5.22
-1.58
-1.27
0.6
1.17
0.22
0.14

> <PUBCHEM_SHAPE_SELFOVERLAP>
793.691

> <PUBCHEM_SHAPE_VOLUME>
205.4

> <PUBCHEM_COORDINATE_TYPE>
2
5
10

$$$$
