53468286
  -OEChem-10241303053D

 49 53  0     1  0  0  0  0  0999 V2000
    2.4730   -2.1337   -0.1328 O   0  0  0  0  0  0  0  0  0  0  0  0
   -0.7603    0.6450    1.9060 O   0  0  0  0  0  0  0  0  0  0  0  0
   -0.3169   -3.1101   -0.5318 O   0  0  0  0  0  0  0  0  0  0  0  0
    4.7112   -1.6249   -0.2426 O   0  0  0  0  0  0  0  0  0  0  0  0
   -1.8896    2.7334    0.6248 O   0  0  0  0  0  0  0  0  0  0  0  0
    0.6125    0.9518   -0.0694 C   0  0  2  0  0  0  0  0  0  0  0  0
    1.1898    2.3029   -0.4430 C   0  0  2  0  0  0  0  0  0  0  0  0
    1.5982   -0.0793    0.4162 C   0  0  2  0  0  0  0  0  0  0  0  0
    0.6055    1.4453   -1.5185 C   0  0  0  0  0  0  0  0  0  0  0  0
   -0.7865    0.5902    0.4685 C   0  0  1  0  0  0  0  0  0  0  0  0
    3.0959    0.1333    0.2991 C   0  0  2  0  0  0  0  0  0  0  0  0
    2.6814    2.5131   -0.4815 C   0  0  0  0  0  0  0  0  0  0  0  0
    1.3072   -1.3487   -0.3410 C   0  0  2  0  0  0  0  0  0  0  0  0
    3.4750    1.2128   -0.7158 C   0  0  0  0  0  0  0  0  0  0  0  0
   -1.1520   -0.8632    0.0842 C   0  0  0  0  0  0  0  0  0  0  0  0
   -0.0187   -1.9174    0.1924 C   0  0  1  0  0  0  0  0  0  0  0  0
    3.5518   -1.2752   -0.0753 C   0  0  0  0  0  0  0  0  0  0  0  0
   -1.8867    1.5991    0.1413 C   0  0  0  0  0  0  0  0  0  0  0  0
    3.7074    0.4639    1.6749 C   0  0  0  0  0  0  0  0  0  0  0  0
   -2.3860   -1.1912   -0.3465 C   0  0  0  0  0  0  0  0  0  0  0  0
   -2.9521    1.1895   -0.8517 C   0  0  0  0  0  0  0  0  0  0  0  0
   -3.5164   -0.2053   -0.5377 C   0  0  1  0  0  0  0  0  0  0  0  0
   -4.3869   -0.6526   -1.7257 C   0  0  0  0  0  0  0  0  0  0  0  0
   -4.3856   -0.1682    0.6946 C   0  0  0  0  0  0  0  0  0  0  0  0
   -4.5712   -1.2108    1.5112 C   0  0  0  0  0  0  0  0  0  0  0  0
    0.6552    3.1971   -0.1529 H   0  0  0  0  0  0  0  0  0  0  0  0
    1.4094   -0.2610    1.4848 H   0  0  0  0  0  0  0  0  0  0  0  0
    1.2428    0.9591   -2.2448 H   0  0  0  0  0  0  0  0  0  0  0  0
   -0.3032    1.8143   -1.9778 H   0  0  0  0  0  0  0  0  0  0  0  0
    2.9959    2.9785    0.4593 H   0  0  0  0  0  0  0  0  0  0  0  0
    2.9211    3.2268   -1.2783 H   0  0  0  0  0  0  0  0  0  0  0  0
    1.2257   -1.2071   -1.4268 H   0  0  0  0  0  0  0  0  0  0  0  0
    3.3181    0.8442   -1.7362 H   0  0  0  0  0  0  0  0  0  0  0  0
    4.5486    1.4334   -0.6574 H   0  0  0  0  0  0  0  0  0  0  0  0
    0.0934   -2.2130    1.2421 H   0  0  0  0  0  0  0  0  0  0  0  0
    3.5687   -0.3610    2.3844 H   0  0  0  0  0  0  0  0  0  0  0  0
    4.7876    0.6322    1.5953 H   0  0  0  0  0  0  0  0  0  0  0  0
    3.2552    1.3584    2.1154 H   0  0  0  0  0  0  0  0  0  0  0  0
   -0.3924    1.5077    2.1650 H   0  0  0  0  0  0  0  0  0  0  0  0
   -2.6060   -2.2306   -0.5818 H   0  0  0  0  0  0  0  0  0  0  0  0
   -2.5002    1.2157   -1.8505 H   0  0  0  0  0  0  0  0  0  0  0  0
   -3.7465    1.9467   -0.8430 H   0  0  0  0  0  0  0  0  0  0  0  0
   -0.3715   -2.8831   -1.4760 H   0  0  0  0  0  0  0  0  0  0  0  0
   -3.7984   -0.7152   -2.6493 H   0  0  0  0  0  0  0  0  0  0  0  0
   -4.8338   -1.6405   -1.5575 H   0  0  0  0  0  0  0  0  0  0  0  0
   -5.2078    0.0523   -1.9055 H   0  0  0  0  0  0  0  0  0  0  0  0
   -4.9399    0.7447    0.9014 H   0  0  0  0  0  0  0  0  0  0  0  0
   -4.1028   -2.1768    1.3672 H   0  0  0  0  0  0  0  0  0  0  0  0
   -5.2352   -1.1121    2.3644 H   0  0  0  0  0  0  0  0  0  0  0  0
  1 13  1  0  0  0  0
  1 17  1  0  0  0  0
  2 10  1  0  0  0  0
  2 39  1  0  0  0  0
  3 16  1  0  0  0  0
  3 43  1  0  0  0  0
  4 17  2  0  0  0  0
  5 18  2  0  0  0  0
  6  7  1  0  0  0  0
  6  8  1  0  0  0  0
  6  9  1  0  0  0  0
  6 10  1  0  0  0  0
  7  9  1  0  0  0  0
  7 12  1  0  0  0  0
  7 26  1  0  0  0  0
  8 11  1  0  0  0  0
  8 13  1  0  0  0  0
  8 27  1  0  0  0  0
  9 28  1  0  0  0  0
  9 29  1  0  0  0  0
 10 15  1  0  0  0  0
 10 18  1  0  0  0  0
 11 14  1  0  0  0  0
 11 17  1  0  0  0  0
 11 19  1  0  0  0  0
 12 14  1  0  0  0  0
 12 30  1  0  0  0  0
 12 31  1  0  0  0  0
 13 16  1  0  0  0  0
 13 32  1  0  0  0  0
 14 33  1  0  0  0  0
 14 34  1  0  0  0  0
 15 16  1  0  0  0  0
 15 20  2  0  0  0  0
 16 35  1  0  0  0  0
 18 21  1  0  0  0  0
 19 36  1  0  0  0  0
 19 37  1  0  0  0  0
 19 38  1  0  0  0  0
 20 22  1  0  0  0  0
 20 40  1  0  0  0  0
 21 22  1  0  0  0  0
 21 41  1  0  0  0  0
 21 42  1  0  0  0  0
 22 23  1  0  0  0  0
 22 24  1  0  0  0  0
 23 44  1  0  0  0  0
 23 45  1  0  0  0  0
 23 46  1  0  0  0  0
 24 25  2  0  0  0  0
 24 47  1  0  0  0  0
 25 48  1  0  0  0  0
 25 49  1  0  0  0  0
M  END
> <PUBCHEM_COMPOUND_CID>
53468286

> <PUBCHEM_CONFORMER_RMSD>
0.6

> <PUBCHEM_CONFORMER_DIVERSEORDER>
1
2

> <PUBCHEM_MMFF94_PARTIAL_CHARGES>
31
1 -0.43
10 0.57
11 0.06
12 0.09
13 0.28
15 -0.28
16 0.42
17 0.66
18 0.45
2 -0.68
20 -0.29
21 0.06
22 0.28
24 -0.29
25 -0.3
26 0.1
28 0.1
29 0.1
3 -0.68
39 0.4
4 -0.57
40 0.15
43 0.4
47 0.15
48 0.15
49 0.15
5 -0.57
6 -0.19
7 -0.19
8 0.09
9 -0.2

> <PUBCHEM_EFFECTIVE_ROTOR_COUNT>
2.4

> <PUBCHEM_PHARMACOPHORE_FEATURES>
11
1 2 acceptor
1 2 donor
1 25 hydrophobe
1 3 acceptor
1 3 donor
1 4 acceptor
1 5 acceptor
5 1 8 11 13 17 rings
6 10 15 18 20 21 22 rings
6 6 8 10 13 15 16 rings
7 6 7 8 9 11 12 14 rings

> <PUBCHEM_HEAVY_ATOM_COUNT>
25

> <PUBCHEM_ATOM_DEF_STEREO_COUNT>
8

> <PUBCHEM_ATOM_UDEF_STEREO_COUNT>
0

> <PUBCHEM_BOND_DEF_STEREO_COUNT>
0

> <PUBCHEM_BOND_UDEF_STEREO_COUNT>
0

> <PUBCHEM_ISOTOPIC_ATOM_COUNT>
0

> <PUBCHEM_COMPONENT_COUNT>
1

> <PUBCHEM_CACTVS_TAUTO_COUNT>
2

> <PUBCHEM_CONFORMER_ID>
032FDC7E00000001

> <PUBCHEM_MMFF94_ENERGY>
82.1064

> <PUBCHEM_FEATURE_SELFOVERLAP>
56.03

> <PUBCHEM_SHAPE_FINGERPRINT>
10863032 1 18264487471569302189
10967382 1 18337954605249395428
11370993 70 18339909506843050748
11578080 2 17630580415381513057
12011746 2 18410009923445150254
12236239 1 17775566460079898151
12403259 226 18334010566841221892
12422481 6 18267042565500775273
12553582 1 18341334499756389677
12592029 89 18261114096991793323
12788726 201 17774183260966361761
13140716 1 18122061180767220722
13224815 77 18341898493455136921
13544653 18 18341888589239446721
13583140 156 17168688821757042731
14178342 30 18195243321628851744
14787075 74 17700950361837977299
14790565 3 18195545880964476329
15196674 1 18409167701295248637
15536298 74 18342736312825755430
16945 1 18340766056565897664
17349148 13 18409722958983296370
17357779 13 18187634769873238069
17492 89 18335423473706014411
18186145 218 18342741827289703887
192875 21 18410564093952785228
19591789 44 18266745864532904651
200 152 18343294869085811229
20028762 73 18272927245742592639
20645477 70 18261382399482947191
20691752 17 17895761677570989528
20715895 44 18189878856548541525
20739085 24 18190485851233366289
21033648 29 18129926915111518800
21267235 1 18337964410844588782
221490 88 18334019397151148242
22182313 1 18264751200300308556
23184049 59 18408885148250130550
2334 1 18338516344074656774
23419403 2 16538697418274134532
23559900 14 18272080609193569520
2748010 2 18266737987330353086
296302 2 17132112480679152873
335352 9 18265614282220396837
350125 39 18339933635964135920
392239 28 17774704433904094842
484985 159 15149351909966266018
5104073 3 18409729534488848825
7364860 26 18339081592083871620
7832392 63 18050288063904369961
9709674 26 18335701680069921451

> <PUBCHEM_SHAPE_MULTIPOLES>
485.14
8.09
2.69
1.3
2.51
0.01
-0.21
-1.7
-0.35
-1.11
0.38
0.68
0.13
0

> <PUBCHEM_SHAPE_SELFOVERLAP>
1077.208

> <PUBCHEM_SHAPE_VOLUME>
257.8

> <PUBCHEM_COORDINATE_TYPE>
2
5
10

$$$$
