3034048
  -OEChem-10241303133D

 40 41  0     1  0  0  0  0  0999 V2000
   -1.4595    0.8627   -1.1984 S   0  0  0  0  0  0  0  0  0  0  0  0
    5.4174    0.7173    1.7596 S   0  0  0  0  0  0  0  0  0  0  0  0
    3.4780   -1.2845    0.1509 O   0  0  0  0  0  0  0  0  0  0  0  0
   -0.4241   -2.8697    0.5207 O   0  0  0  0  0  0  0  0  0  0  0  0
    0.8076   -2.0653   -1.2205 O   0  0  0  0  0  0  0  0  0  0  0  0
    1.6191    0.0940    0.2143 N   0  0  0  0  0  0  0  0  0  0  0  0
    0.7371   -0.8581    0.8727 C   0  0  1  0  0  0  0  0  0  0  0  0
   -0.5077    1.1599    0.3307 C   0  0  1  0  0  0  0  0  0  0  0  0
   -0.5027   -0.0561    1.2639 C   0  0  0  0  0  0  0  0  0  0  0  0
    0.9716    1.3935    0.0402 C   0  0  0  0  0  0  0  0  0  0  0  0
    2.9619   -0.1764   -0.0051 C   0  0  0  0  0  0  0  0  0  0  0  0
    3.7928    0.9897   -0.4776 C   0  0  1  0  0  0  0  0  0  0  0  0
    0.4008   -1.9721   -0.0720 C   0  0  0  0  0  0  0  0  0  0  0  0
    5.2497    0.8279   -0.0498 C   0  0  0  0  0  0  0  0  0  0  0  0
    3.6754    1.0526   -1.9959 C   0  0  0  0  0  0  0  0  0  0  0  0
   -3.0962    0.5822   -0.5368 C   0  0  0  0  0  0  0  0  0  0  0  0
   -3.7222    1.5787    0.2074 C   0  0  0  0  0  0  0  0  0  0  0  0
   -3.7381   -0.6314   -0.7688 C   0  0  0  0  0  0  0  0  0  0  0  0
   -4.9995    1.3598    0.7237 C   0  0  0  0  0  0  0  0  0  0  0  0
   -5.0155   -0.8500   -0.2527 C   0  0  0  0  0  0  0  0  0  0  0  0
   -5.6460    0.1456    0.4936 C   0  0  0  0  0  0  0  0  0  0  0  0
    1.2524   -1.2876    1.7393 H   0  0  0  0  0  0  0  0  0  0  0  0
   -0.9339    2.0395    0.8231 H   0  0  0  0  0  0  0  0  0  0  0  0
   -1.4304   -0.6339    1.2799 H   0  0  0  0  0  0  0  0  0  0  0  0
   -0.3532    0.3124    2.2883 H   0  0  0  0  0  0  0  0  0  0  0  0
    1.1743    1.8313   -0.9391 H   0  0  0  0  0  0  0  0  0  0  0  0
    1.3899    2.0599    0.8044 H   0  0  0  0  0  0  0  0  0  0  0  0
    3.4245    1.9302   -0.0562 H   0  0  0  0  0  0  0  0  0  0  0  0
    5.6972   -0.0733   -0.4834 H   0  0  0  0  0  0  0  0  0  0  0  0
    5.8415    1.6836   -0.3919 H   0  0  0  0  0  0  0  0  0  0  0  0
    2.6394    1.1039   -2.3411 H   0  0  0  0  0  0  0  0  0  0  0  0
    4.2020    1.9304   -2.3856 H   0  0  0  0  0  0  0  0  0  0  0  0
    4.1193    0.1647   -2.4616 H   0  0  0  0  0  0  0  0  0  0  0  0
   -0.6592   -3.6059   -0.0835 H   0  0  0  0  0  0  0  0  0  0  0  0
   -3.2427    2.5365    0.3911 H   0  0  0  0  0  0  0  0  0  0  0  0
   -3.2608   -1.4189   -1.3466 H   0  0  0  0  0  0  0  0  0  0  0  0
    4.8968    1.9217    2.0368 H   0  0  0  0  0  0  0  0  0  0  0  0
   -5.4916    2.1357    1.3028 H   0  0  0  0  0  0  0  0  0  0  0  0
   -5.5190   -1.7956   -0.4313 H   0  0  0  0  0  0  0  0  0  0  0  0
   -6.6407   -0.0246    0.8951 H   0  0  0  0  0  0  0  0  0  0  0  0
  1  8  1  0  0  0  0
  1 16  1  0  0  0  0
  2 14  1  0  0  0  0
  2 37  1  0  0  0  0
  3 11  2  0  0  0  0
  4 13  1  0  0  0  0
  4 34  1  0  0  0  0
  5 13  2  0  0  0  0
  6  7  1  0  0  0  0
  6 10  1  0  0  0  0
  6 11  1  0  0  0  0
  7  9  1  0  0  0  0
  7 13  1  0  0  0  0
  7 22  1  0  0  0  0
  8  9  1  0  0  0  0
  8 10  1  0  0  0  0
  8 23  1  0  0  0  0
  9 24  1  0  0  0  0
  9 25  1  0  0  0  0
 10 26  1  0  0  0  0
 10 27  1  0  0  0  0
 11 12  1  0  0  0  0
 12 14  1  0  0  0  0
 12 15  1  0  0  0  0
 12 28  1  0  0  0  0
 14 29  1  0  0  0  0
 14 30  1  0  0  0  0
 15 31  1  0  0  0  0
 15 32  1  0  0  0  0
 15 33  1  0  0  0  0
 16 17  2  0  0  0  0
 16 18  1  0  0  0  0
 17 19  1  0  0  0  0
 17 35  1  0  0  0  0
 18 20  2  0  0  0  0
 18 36  1  0  0  0  0
 19 21  2  0  0  0  0
 19 38  1  0  0  0  0
 20 21  1  0  0  0  0
 20 39  1  0  0  0  0
 21 40  1  0  0  0  0
M  END
> <PUBCHEM_COMPOUND_CID>
3034048

> <PUBCHEM_CONFORMER_RMSD>
0.8

> <PUBCHEM_CONFORMER_DIVERSEORDER>
1
2
7
20
28
29
43
52
13
10
5
14
25
23
48
26
30
31
40
21
11
38
41
45
42
19
6
36
50
27
18
46
44
35
22
16
39
49
37
17
12
8
47
32
33
51
4
9
34
3
24
15

> <PUBCHEM_MMFF94_PARTIAL_CHARGES>
26
1 -0.33
10 0.3
11 0.57
12 0.06
13 0.66
14 0.23
16 0.1
17 -0.15
18 -0.15
19 -0.15
2 -0.41
20 -0.15
21 -0.15
3 -0.57
34 0.5
35 0.15
36 0.15
37 0.18
38 0.15
39 0.15
4 -0.65
40 0.15
5 -0.57
6 -0.66
7 0.36
8 0.23

> <PUBCHEM_EFFECTIVE_ROTOR_COUNT>
7

> <PUBCHEM_PHARMACOPHORE_FEATURES>
7
1 15 hydrophobe
1 3 acceptor
1 4 acceptor
1 5 acceptor
3 4 5 13 anion
5 6 7 8 9 10 rings
6 16 17 18 19 20 21 rings

> <PUBCHEM_HEAVY_ATOM_COUNT>
21

> <PUBCHEM_ATOM_DEF_STEREO_COUNT>
3

> <PUBCHEM_ATOM_UDEF_STEREO_COUNT>
0

> <PUBCHEM_BOND_DEF_STEREO_COUNT>
0

> <PUBCHEM_BOND_UDEF_STEREO_COUNT>
0

> <PUBCHEM_ISOTOPIC_ATOM_COUNT>
0

> <PUBCHEM_COMPONENT_COUNT>
1

> <PUBCHEM_CACTVS_TAUTO_COUNT>
1

> <PUBCHEM_CONFORMER_ID>
002E4BC000000001

> <PUBCHEM_MMFF94_ENERGY>
56.9184

> <PUBCHEM_FEATURE_SELFOVERLAP>
35.577

> <PUBCHEM_SHAPE_FINGERPRINT>
10090160 65 17894628145280486738
10366900 7 18272362084581470609
10692045 39 18198324205678000426
12035758 1 18338795731570772256
12166972 35 18187082837376600276
12236239 1 17917994962130884265
124424 183 11167938078524117525
12516196 113 8286198344833584886
12592029 89 18187363203702564090
12616971 3 17748544852966066037
12760667 363 11527685041717155212
128620 24 17022904540992218309
13134695 92 10375859762998132875
13533116 47 18131068191829702146
13583140 156 15936414471899155312
15048467 5 14405181794089422032
15196674 1 18411981326023633599
15209289 33 18411979195957004249
15788980 27 13045945703054119345
1601671 61 18272089379136979657
17349148 13 17894912906276788176
173720 79 18187635929946989274
17980427 23 13623533407510372055
18222031 100 10737286848598039560
20681677 155 17632857529937323999
21033648 29 14635140283041273517
22079108 93 18271519879274107616
22224240 67 18410570708787736819
23402539 116 18341889701583560292
23559900 14 17840305523686259639
23622692 88 16950278516949517104
2916195 48 17917137390511691920
3323516 105 18201445744130456023
34797466 226 16845575339655303057
351380 180 16443059504430175868
4325135 7 18186803582359378965
4340502 62 18273212002331681760
474229 33 18335137609330444051
4990 188 17846786203949168252
5104073 3 18339361851589677827
7495541 125 17603873350682710913

> <PUBCHEM_SHAPE_MULTIPOLES>
417.28
12.17
1.99
1.35
2.01
1.25
-0.15
-3.84
1.96
0.24
-0.08
-1.25
-0.24
-0.46

> <PUBCHEM_SHAPE_SELFOVERLAP>
844.204

> <PUBCHEM_SHAPE_VOLUME>
246.1

> <PUBCHEM_COORDINATE_TYPE>
2
5
10

$$$$
