235905
  -OEChem-10241303023D

 54 57  0     1  0  0  0  0  0999 V2000
    4.0356    1.1007    1.0505 O   0  0  0  0  0  0  0  0  0  0  0  0
    1.6354    0.6219    0.6855 C   0  0  1  0  0  0  0  0  0  0  0  0
    0.9499   -0.6847    0.2284 C   0  0  2  0  0  0  0  0  0  0  0  0
   -0.5367   -0.7368    0.5949 C   0  0  1  0  0  0  0  0  0  0  0  0
   -1.2670    0.4598   -0.0848 C   0  0  2  0  0  0  0  0  0  0  0  0
    3.1147    0.3225    0.2896 C   0  0  2  0  0  0  0  0  0  0  0  0
    0.9429    1.7915   -0.0340 C   0  0  0  0  0  0  0  0  0  0  0  0
    1.8712   -1.7764    0.7623 C   0  0  0  0  0  0  0  0  0  0  0  0
   -0.5746    1.8107    0.2245 C   0  0  0  0  0  0  0  0  0  0  0  0
    3.2852   -1.1735    0.6654 C   0  0  0  0  0  0  0  0  0  0  0  0
   -2.7809    0.4675    0.2806 C   0  0  2  0  0  0  0  0  0  0  0  0
   -1.1880   -2.0604    0.1687 C   0  0  0  0  0  0  0  0  0  0  0  0
    1.5504    0.8633    2.2213 C   0  0  0  0  0  0  0  0  0  0  0  0
   -2.6644   -2.0887    0.5526 C   0  0  0  0  0  0  0  0  0  0  0  0
   -3.4081   -0.8944    0.0140 C   0  0  0  0  0  0  0  0  0  0  0  0
    3.4663    0.5467   -1.1864 C   0  0  0  0  0  0  0  0  0  0  0  0
   -3.5205    1.6101   -0.4519 C   0  0  0  0  0  0  0  0  0  0  0  0
   -5.0323    1.4183   -0.4409 C   0  0  0  0  0  0  0  0  0  0  0  0
   -4.5742   -1.0426   -0.6392 C   0  0  0  0  0  0  0  0  0  0  0  0
   -5.4145    0.1028   -1.1118 C   0  0  0  0  0  0  0  0  0  0  0  0
    4.8808    0.1530   -1.4650 C   0  0  0  0  0  0  0  0  0  0  0  0
    5.2289   -0.8115   -2.3241 C   0  0  0  0  0  0  0  0  0  0  0  0
    0.9967   -0.7500   -0.8692 H   0  0  0  0  0  0  0  0  0  0  0  0
   -0.6506   -0.6553    1.6827 H   0  0  0  0  0  0  0  0  0  0  0  0
   -1.1904    0.3125   -1.1736 H   0  0  0  0  0  0  0  0  0  0  0  0
    1.0877    1.7181   -1.1183 H   0  0  0  0  0  0  0  0  0  0  0  0
    1.3820    2.7477    0.2743 H   0  0  0  0  0  0  0  0  0  0  0  0
    1.7925   -2.6968    0.1743 H   0  0  0  0  0  0  0  0  0  0  0  0
    1.6351   -2.0289    1.8021 H   0  0  0  0  0  0  0  0  0  0  0  0
   -0.7756    2.1017    1.2617 H   0  0  0  0  0  0  0  0  0  0  0  0
   -1.0045    2.6011   -0.4016 H   0  0  0  0  0  0  0  0  0  0  0  0
    3.7988   -1.2850    1.6283 H   0  0  0  0  0  0  0  0  0  0  0  0
    3.8696   -1.7514   -0.0552 H   0  0  0  0  0  0  0  0  0  0  0  0
   -2.8740    0.6509    1.3607 H   0  0  0  0  0  0  0  0  0  0  0  0
   -0.6837   -2.9049    0.6524 H   0  0  0  0  0  0  0  0  0  0  0  0
   -1.0824   -2.2025   -0.9145 H   0  0  0  0  0  0  0  0  0  0  0  0
    2.0181    1.8186    2.4869 H   0  0  0  0  0  0  0  0  0  0  0  0
    0.5236    0.9057    2.5924 H   0  0  0  0  0  0  0  0  0  0  0  0
    2.0607    0.0840    2.7960 H   0  0  0  0  0  0  0  0  0  0  0  0
   -2.7558   -2.0910    1.6462 H   0  0  0  0  0  0  0  0  0  0  0  0
   -3.1058   -3.0282    0.1992 H   0  0  0  0  0  0  0  0  0  0  0  0
    3.3820    1.6123   -1.4339 H   0  0  0  0  0  0  0  0  0  0  0  0
    2.7824    0.0086   -1.8513 H   0  0  0  0  0  0  0  0  0  0  0  0
   -3.1793    1.6763   -1.4935 H   0  0  0  0  0  0  0  0  0  0  0  0
   -3.2838    2.5697    0.0224 H   0  0  0  0  0  0  0  0  0  0  0  0
    3.8612    2.0379    0.8578 H   0  0  0  0  0  0  0  0  0  0  0  0
   -5.5212    2.2518   -0.9577 H   0  0  0  0  0  0  0  0  0  0  0  0
   -5.3950    1.4281    0.5948 H   0  0  0  0  0  0  0  0  0  0  0  0
   -4.9705   -2.0384   -0.8199 H   0  0  0  0  0  0  0  0  0  0  0  0
   -5.3127    0.1886   -2.1999 H   0  0  0  0  0  0  0  0  0  0  0  0
   -6.4690   -0.1093   -0.9020 H   0  0  0  0  0  0  0  0  0  0  0  0
    5.6729    0.7003   -0.9606 H   0  0  0  0  0  0  0  0  0  0  0  0
    6.2745   -1.0437   -2.4947 H   0  0  0  0  0  0  0  0  0  0  0  0
    4.4852   -1.3841   -2.8672 H   0  0  0  0  0  0  0  0  0  0  0  0
  1  6  1  0  0  0  0
  1 46  1  0  0  0  0
  2  3  1  0  0  0  0
  2  6  1  0  0  0  0
  2  7  1  0  0  0  0
  2 13  1  0  0  0  0
  3  4  1  0  0  0  0
  3  8  1  0  0  0  0
  3 23  1  0  0  0  0
  4  5  1  0  0  0  0
  4 12  1  0  0  0  0
  4 24  1  0  0  0  0
  5  9  1  0  0  0  0
  5 11  1  0  0  0  0
  5 25  1  0  0  0  0
  6 10  1  0  0  0  0
  6 16  1  0  0  0  0
  7  9  1  0  0  0  0
  7 26  1  0  0  0  0
  7 27  1  0  0  0  0
  8 10  1  0  0  0  0
  8 28  1  0  0  0  0
  8 29  1  0  0  0  0
  9 30  1  0  0  0  0
  9 31  1  0  0  0  0
 10 32  1  0  0  0  0
 10 33  1  0  0  0  0
 11 15  1  0  0  0  0
 11 17  1  0  0  0  0
 11 34  1  0  0  0  0
 12 14  1  0  0  0  0
 12 35  1  0  0  0  0
 12 36  1  0  0  0  0
 13 37  1  0  0  0  0
 13 38  1  0  0  0  0
 13 39  1  0  0  0  0
 14 15  1  0  0  0  0
 14 40  1  0  0  0  0
 14 41  1  0  0  0  0
 15 19  2  0  0  0  0
 16 21  1  0  0  0  0
 16 42  1  0  0  0  0
 16 43  1  0  0  0  0
 17 18  1  0  0  0  0
 17 44  1  0  0  0  0
 17 45  1  0  0  0  0
 18 20  1  0  0  0  0
 18 47  1  0  0  0  0
 18 48  1  0  0  0  0
 19 20  1  0  0  0  0
 19 49  1  0  0  0  0
 20 50  1  0  0  0  0
 20 51  1  0  0  0  0
 21 22  2  0  0  0  0
 21 52  1  0  0  0  0
 22 53  1  0  0  0  0
 22 54  1  0  0  0  0
M  END
> <PUBCHEM_COMPOUND_CID>
235905

> <PUBCHEM_CONFORMER_RMSD>
0.6

> <PUBCHEM_CONFORMER_DIVERSEORDER>
1
2
3

> <PUBCHEM_MMFF94_PARTIAL_CHARGES>
15
1 -0.68
11 0.14
14 0.14
15 -0.28
16 0.14
19 -0.29
20 0.14
21 -0.29
22 -0.3
46 0.4
49 0.15
52 0.15
53 0.15
54 0.15
6 0.28

> <PUBCHEM_EFFECTIVE_ROTOR_COUNT>
4

> <PUBCHEM_PHARMACOPHORE_FEATURES>
7
1 1 acceptor
1 1 donor
1 22 hydrophobe
5 2 3 6 8 10 rings
6 11 15 17 18 19 20 rings
6 2 3 4 5 7 9 rings
6 4 5 11 12 14 15 rings

> <PUBCHEM_HEAVY_ATOM_COUNT>
22

> <PUBCHEM_ATOM_DEF_STEREO_COUNT>
6

> <PUBCHEM_ATOM_UDEF_STEREO_COUNT>
0

> <PUBCHEM_BOND_DEF_STEREO_COUNT>
0

> <PUBCHEM_BOND_UDEF_STEREO_COUNT>
0

> <PUBCHEM_ISOTOPIC_ATOM_COUNT>
0

> <PUBCHEM_COMPONENT_COUNT>
1

> <PUBCHEM_CACTVS_TAUTO_COUNT>
1

> <PUBCHEM_CONFORMER_ID>
0003998100000001

> <PUBCHEM_MMFF94_ENERGY>
63.7859

> <PUBCHEM_FEATURE_SELFOVERLAP>
35.614

> <PUBCHEM_SHAPE_FINGERPRINT>
10498660 4 18335139808084524776
10670039 82 18187651262542620340
10759866 29 17894912888859373338
11578080 2 16984885795583893771
12011746 2 18413107260305922247
12236239 1 17385435549172465248
12390115 104 18269562646394451361
12403259 415 18341888611215677281
12403814 3 17095233714333531469
12553582 1 18408610261864190945
12596602 18 12823295663634240326
12670543 26 18411426076946528966
12760667 363 17345210917235401270
12788726 201 18199473160315289785
12954195 1 18057619676210487732
13134695 92 16415482692096286232
13544592 145 18202568392863119206
13760787 19 18040437693617598602
14528608 73 18187085074225769764
14790565 3 18192714432659863389
15183329 4 18041853822588961582
15196674 1 18409157801801767835
15238133 3 17967802847501172384
15415430 112 18333737943849734143
1601671 61 18187079555171890037
16752209 62 18336537257747205993
16945 1 18335700589095305728
17870717 6 18343027687876248039
1813 80 14979693082655262464
18186145 218 18131630097630895003
19862831 5 18413111666588900723
200 152 16128659652120407491
20645477 70 17346600777083656374
20871999 31 18334583450911151726
21069387 34 15554452911259401391
21267235 1 18409167701416866899
21637258 2 16200155344472424862
221357 26 18131349704917604593
22182313 1 18196657525731523066
22393880 68 18343298188821510359
22849339 104 18262811777548144871
23175994 123 17561089119883675417
23366157 5 17679294166338819731
23379529 103 17628348583066076343
23402655 69 18187083944580753255
23493267 7 17749112226751633395
23557571 272 18342174518456180168
23559900 14 18271803549089921736
25147074 1 18118124667357800200
2748010 2 17904762528621370323
2838139 119 15647341896290496334
2871803 45 18412545409869338156
296302 2 15140962871989123363
3004659 81 18187360970657621874
335352 9 18264480702727438207
34797466 226 18059293265962271789
34934 24 18335971051807556906
3759504 43 17385731317647674795
465052 167 12967128341234634836
474 4 16081378487488850956
495365 180 17631711864063594939
4990 188 18131913754113518012
5104073 3 18408595955612737963
542803 24 17312819373242029189
59755656 215 18272368642843641975
9709674 26 18269549619214894739

> <PUBCHEM_SHAPE_MULTIPOLES>
446.88
10.91
2.02
1.49
1.98
0.33
-0.21
-0.47
-6.19
1.02
0.27
-2.13
-0.06
0.55

> <PUBCHEM_SHAPE_SELFOVERLAP>
947.148

> <PUBCHEM_SHAPE_VOLUME>
247.3

> <PUBCHEM_COORDINATE_TYPE>
2
5
10

$$$$
