13896051
  -OEChem-10241302463D

 39 44  0     1  0  0  0  0  0999 V2000
   -3.5741    2.7685   -1.6521 Br  0  0  0  0  0  0  0  0  0  0  0  0
   -1.8477   -2.7091    1.3053 S   0  0  0  0  0  0  0  0  0  0  0  0
   -4.5197    1.6335    1.0584 O   0  0  0  0  0  0  0  0  0  0  0  0
    3.0469   -2.7672   -0.0885 O   0  0  0  0  0  0  0  0  0  0  0  0
    0.2910   -2.9446   -0.3337 N   0  0  0  0  0  0  0  0  0  0  0  0
    0.2287    1.9050    0.2639 N   0  0  0  0  0  0  0  0  0  0  0  0
    4.3060   -0.0199    0.0751 N   0  0  0  0  0  0  0  0  0  0  0  0
   -1.3716   -0.6601   -0.3915 C   0  0  2  0  0  0  0  0  0  0  0  0
   -2.0168   -0.8976    0.9991 C   0  0  1  0  0  0  0  0  0  0  0  0
   -1.7113   -1.9438   -1.2003 C   0  0  0  0  0  0  0  0  0  0  0  0
   -1.1553   -3.0799   -0.3465 C   0  0  2  0  0  0  0  0  0  0  0  0
    0.1702   -0.5590   -0.2179 C   0  0  0  0  0  0  0  0  0  0  0  0
   -3.4940   -0.5253    1.0491 C   0  0  0  0  0  0  0  0  0  0  0  0
    0.9048   -1.7084   -0.2343 C   0  0  0  0  0  0  0  0  0  0  0  0
   -1.9497    0.5241   -1.1320 C   0  0  0  0  0  0  0  0  0  0  0  0
    0.8126    0.7770    0.0521 C   0  0  0  0  0  0  0  0  0  0  0  0
    2.2395    0.7221    0.0734 C   0  0  0  0  0  0  0  0  0  0  0  0
   -3.7124    0.8754    0.5236 C   0  0  0  0  0  0  0  0  0  0  0  0
   -2.9850    1.2678   -0.7168 C   0  0  0  0  0  0  0  0  0  0  0  0
    2.4110   -1.7188   -0.0921 C   0  0  0  0  0  0  0  0  0  0  0  0
    2.9928   -0.4141    0.0178 C   0  0  0  0  0  0  0  0  0  0  0  0
    3.0782    1.8385    0.1103 C   0  0  0  0  0  0  0  0  0  0  0  0
    2.4589    3.1781    0.0902 C   0  0  0  0  0  0  0  0  0  0  0  0
    1.0276    3.0957    0.6673 C   0  0  0  0  0  0  0  0  0  0  0  0
    4.3694    1.3620    0.1201 C   0  0  0  0  0  0  0  0  0  0  0  0
   -1.4805   -0.3542    1.7871 H   0  0  0  0  0  0  0  0  0  0  0  0
   -2.7922   -2.0583   -1.3594 H   0  0  0  0  0  0  0  0  0  0  0  0
   -1.2461   -1.9301   -2.1958 H   0  0  0  0  0  0  0  0  0  0  0  0
   -1.4596   -4.0684   -0.7001 H   0  0  0  0  0  0  0  0  0  0  0  0
   -3.8499   -0.5638    2.0859 H   0  0  0  0  0  0  0  0  0  0  0  0
   -4.1253   -1.1969    0.4549 H   0  0  0  0  0  0  0  0  0  0  0  0
   -1.4529    0.7914   -2.0643 H   0  0  0  0  0  0  0  0  0  0  0  0
    0.8708   -3.7719   -0.2447 H   0  0  0  0  0  0  0  0  0  0  0  0
    3.0510    3.9032    0.6581 H   0  0  0  0  0  0  0  0  0  0  0  0
    2.4090    3.5289   -0.9478 H   0  0  0  0  0  0  0  0  0  0  0  0
    1.0748    3.1022    1.7637 H   0  0  0  0  0  0  0  0  0  0  0  0
    0.4751    3.9948    0.3722 H   0  0  0  0  0  0  0  0  0  0  0  0
    5.1065   -0.6368    0.0553 H   0  0  0  0  0  0  0  0  0  0  0  0
    5.3269    1.8632    0.1393 H   0  0  0  0  0  0  0  0  0  0  0  0
  1 19  1  0  0  0  0
  2  9  1  0  0  0  0
  2 11  1  0  0  0  0
  3 18  2  0  0  0  0
  4 20  2  0  0  0  0
  5 11  1  0  0  0  0
  5 14  1  0  0  0  0
  5 33  1  0  0  0  0
  6 16  2  0  0  0  0
  6 24  1  0  0  0  0
  7 21  1  0  0  0  0
  7 25  1  0  0  0  0
  7 38  1  0  0  0  0
  8  9  1  0  0  0  0
  8 10  1  0  0  0  0
  8 12  1  0  0  0  0
  8 15  1  0  0  0  0
  9 13  1  0  0  0  0
  9 26  1  0  0  0  0
 10 11  1  0  0  0  0
 10 27  1  0  0  0  0
 10 28  1  0  0  0  0
 11 29  1  0  0  0  0
 12 14  2  0  0  0  0
 12 16  1  0  0  0  0
 13 18  1  0  0  0  0
 13 30  1  0  0  0  0
 13 31  1  0  0  0  0
 14 20  1  0  0  0  0
 15 19  2  0  0  0  0
 15 32  1  0  0  0  0
 16 17  1  0  0  0  0
 17 21  2  0  0  0  0
 17 22  1  0  0  0  0
 18 19  1  0  0  0  0
 20 21  1  0  0  0  0
 22 23  1  0  0  0  0
 22 25  2  0  0  0  0
 23 24  1  0  0  0  0
 23 34  1  0  0  0  0
 23 35  1  0  0  0  0
 24 36  1  0  0  0  0
 24 37  1  0  0  0  0
 25 39  1  0  0  0  0
M  END
> <PUBCHEM_COMPOUND_CID>
13896051

> <PUBCHEM_CONFORMER_RMSD>
0.6

> <PUBCHEM_CONFORMER_DIVERSEORDER>
1

> <PUBCHEM_MMFF94_PARTIAL_CHARGES>
28
1 -0.11
11 0.6
12 -0.12
13 0.06
14 0.11
15 -0.29
16 0.52
17 -0.09
18 0.49
19 0.12
2 -0.46
20 0.64
21 -0.24
22 -0.18
23 0.18
24 0.25
25 -0.3
3 -0.57
32 0.15
33 0.4
38 0.27
39 0.15
4 -0.57
5 -0.87
6 -0.7
7 0.03
8 0.28
9 0.23

> <PUBCHEM_EFFECTIVE_ROTOR_COUNT>
1.2

> <PUBCHEM_PHARMACOPHORE_FEATURES>
13
1 1 hydrophobe
1 3 acceptor
1 4 acceptor
1 5 cation
1 5 donor
1 6 acceptor
1 7 cation
1 7 donor
5 7 17 21 22 25 rings
6 12 14 16 17 20 21 rings
6 6 16 17 22 23 24 rings
6 8 9 13 15 18 19 rings
8 2 5 8 9 10 11 12 14 rings

> <PUBCHEM_HEAVY_ATOM_COUNT>
25

> <PUBCHEM_ATOM_DEF_STEREO_COUNT>
2

> <PUBCHEM_ATOM_UDEF_STEREO_COUNT>
1

> <PUBCHEM_BOND_DEF_STEREO_COUNT>
0

> <PUBCHEM_BOND_UDEF_STEREO_COUNT>
0

> <PUBCHEM_ISOTOPIC_ATOM_COUNT>
0

> <PUBCHEM_COMPONENT_COUNT>
1

> <PUBCHEM_CACTVS_TAUTO_COUNT>
18

> <PUBCHEM_CONFORMER_ID>
00D4097300000001

> <PUBCHEM_MMFF94_ENERGY>
68.9504

> <PUBCHEM_FEATURE_SELFOVERLAP>
66.212

> <PUBCHEM_SHAPE_FINGERPRINT>
10165383 225 18337968877494805061
10411042 1 17331404164778638391
10670039 82 17686066389504605076
10675989 125 17833816193211705732
10948715 1 18412830187591847859
10967382 1 18340204098950297364
1100329 8 18265041436794622730
11725454 13 17243267489026182991
12403259 226 17908418409432087880
12403260 363 18052241084639498606
12422481 6 18191839320419796424
12553582 1 18340764845844192574
12633257 1 18334005103700441168
12769317 202 17539947504489805629
13140716 1 18339920549583926608
13402501 40 18189333472921774253
13583140 156 16878485904491514804
14022347 108 18194694665885929190
14178342 30 18125988593568215546
14223421 5 18192715763418632634
14790565 3 18266753544203773476
16945 1 18195240255285881222
18219364 16 18410009923176364909
18981168 100 17771332351626386304
19591789 44 18339364187635219541
19930381 70 18267586814786677203
20739085 24 18123208808850829816
21033648 29 18261096457793964069
21524375 3 18409448098678305519
23227448 37 18341615974843896231
2334 1 18411696621231665830
23558518 356 18046344411826377730
23559900 14 18267017250847591434
238 59 17830414398929538293
2748010 2 18412549803579028422
335352 9 18412546488285963974
34934 24 18412824681712520354
350125 39 18195813100606185921
474 4 18271247110628388793
6287921 2 17829056755182583372
70251023 43 17556002937971054694
7832392 63 18342457071248064238
81228 2 17829879185858823057
9709674 26 18410857697949080654

> <PUBCHEM_SHAPE_MULTIPOLES>
497.6
7.3
4.13
1.14
1.47
0.14
0.05
-3.85
-0.62
-0.3
0.27
-1.27
-0.13
1.16

> <PUBCHEM_SHAPE_SELFOVERLAP>
1114.769

> <PUBCHEM_SHAPE_VOLUME>
270.1

> <PUBCHEM_COORDINATE_TYPE>
2
5
10

$$$$
