639412
  -OEChem-10241302493D

 30 30  0     0  0  0  0  0  0999 V2000
    0.1581    2.4565   -0.5264 O   0  0  0  0  0  0  0  0  0  0  0  0
    2.4113    0.8696   -0.3980 O   0  0  0  0  0  0  0  0  0  0  0  0
   -2.3413    1.3242   -0.2985 O   0  0  0  0  0  0  0  0  0  0  0  0
    2.1528   -1.8637   -0.0400 O   0  0  0  0  0  0  0  0  0  0  0  0
   -2.8237   -2.6783    0.2247 O   0  0  0  0  0  0  0  0  0  0  0  0
    0.0344    1.1097   -0.3520 C   0  0  0  0  0  0  0  0  0  0  0  0
   -1.2309    0.5343   -0.2363 C   0  0  0  0  0  0  0  0  0  0  0  0
    1.1738    0.3078   -0.2874 C   0  0  0  0  0  0  0  0  0  0  0  0
   -1.3568   -0.8432   -0.0562 C   0  0  0  0  0  0  0  0  0  0  0  0
    1.0479   -1.0697   -0.1074 C   0  0  0  0  0  0  0  0  0  0  0  0
   -0.2174   -1.6453    0.0082 C   0  0  0  0  0  0  0  0  0  0  0  0
   -2.6679   -1.4655    0.0659 C   0  0  0  0  0  0  0  0  0  0  0  0
    0.8860    3.1733    0.4679 C   0  0  0  0  0  0  0  0  0  0  0  0
    3.2986    0.7023    0.7053 C   0  0  0  0  0  0  0  0  0  0  0  0
   -2.4612    2.3491    0.6848 C   0  0  0  0  0  0  0  0  0  0  0  0
    1.9364   -3.2611    0.1454 C   0  0  0  0  0  0  0  0  0  0  0  0
   -0.3638   -2.7104    0.1493 H   0  0  0  0  0  0  0  0  0  0  0  0
   -3.5491   -0.8055    0.0111 H   0  0  0  0  0  0  0  0  0  0  0  0
    1.9111    3.3446    0.1283 H   0  0  0  0  0  0  0  0  0  0  0  0
    0.8824    2.6636    1.4378 H   0  0  0  0  0  0  0  0  0  0  0  0
    0.4085    4.1494    0.5964 H   0  0  0  0  0  0  0  0  0  0  0  0
    3.9595   -0.1510    0.5287 H   0  0  0  0  0  0  0  0  0  0  0  0
    2.7628    0.5799    1.6532 H   0  0  0  0  0  0  0  0  0  0  0  0
    3.9194    1.6001    0.7781 H   0  0  0  0  0  0  0  0  0  0  0  0
   -2.1481    3.3083    0.2635 H   0  0  0  0  0  0  0  0  0  0  0  0
   -1.8940    2.1250    1.5951 H   0  0  0  0  0  0  0  0  0  0  0  0
   -3.5178    2.4311    0.9566 H   0  0  0  0  0  0  0  0  0  0  0  0
    2.9221   -3.7374    0.1748 H   0  0  0  0  0  0  0  0  0  0  0  0
    1.3970   -3.7026   -0.6995 H   0  0  0  0  0  0  0  0  0  0  0  0
    1.4549   -3.4716    1.1065 H   0  0  0  0  0  0  0  0  0  0  0  0
  1  6  1  0  0  0  0
  1 13  1  0  0  0  0
  2  8  1  0  0  0  0
  2 14  1  0  0  0  0
  3  7  1  0  0  0  0
  3 15  1  0  0  0  0
  4 10  1  0  0  0  0
  4 16  1  0  0  0  0
  5 12  2  0  0  0  0
  6  7  2  0  0  0  0
  6  8  1  0  0  0  0
  7  9  1  0  0  0  0
  8 10  2  0  0  0  0
  9 11  2  0  0  0  0
  9 12  1  0  0  0  0
 10 11  1  0  0  0  0
 11 17  1  0  0  0  0
 12 18  1  0  0  0  0
 13 19  1  0  0  0  0
 13 20  1  0  0  0  0
 13 21  1  0  0  0  0
 14 22  1  0  0  0  0
 14 23  1  0  0  0  0
 14 24  1  0  0  0  0
 15 25  1  0  0  0  0
 15 26  1  0  0  0  0
 15 27  1  0  0  0  0
 16 28  1  0  0  0  0
 16 29  1  0  0  0  0
 16 30  1  0  0  0  0
M  END
> <PUBCHEM_COMPOUND_CID>
639412

> <PUBCHEM_CONFORMER_RMSD>
0.6

> <PUBCHEM_CONFORMER_DIVERSEORDER>
13
9
10
15
11
8
5
14
12
6
4
1
7
3
2

> <PUBCHEM_MMFF94_PARTIAL_CHARGES>
18
1 -0.36
10 0.08
11 -0.15
12 0.42
13 0.28
14 0.28
15 0.28
16 0.28
17 0.15
18 0.06
2 -0.36
3 -0.36
4 -0.36
5 -0.57
6 0.08
7 0.08
8 0.08
9 0.09

> <PUBCHEM_EFFECTIVE_ROTOR_COUNT>
5

> <PUBCHEM_PHARMACOPHORE_FEATURES>
6
1 1 acceptor
1 2 acceptor
1 3 acceptor
1 4 acceptor
1 5 acceptor
6 6 7 8 9 10 11 rings

> <PUBCHEM_HEAVY_ATOM_COUNT>
16

> <PUBCHEM_ATOM_DEF_STEREO_COUNT>
0

> <PUBCHEM_ATOM_UDEF_STEREO_COUNT>
0

> <PUBCHEM_BOND_DEF_STEREO_COUNT>
0

> <PUBCHEM_BOND_UDEF_STEREO_COUNT>
0

> <PUBCHEM_ISOTOPIC_ATOM_COUNT>
0

> <PUBCHEM_COMPONENT_COUNT>
1

> <PUBCHEM_CACTVS_TAUTO_COUNT>
1

> <PUBCHEM_CONFORMER_ID>
0009C1B40000000D

> <PUBCHEM_MMFF94_ENERGY>
83.8434

> <PUBCHEM_FEATURE_SELFOVERLAP>
30.464

> <PUBCHEM_SHAPE_FINGERPRINT>
10967382 1 18266458706902394127
11680986 33 18338795585705582570
12382932 28 18410849924152941192
12423570 1 13589427265169781533
13140716 1 18265615377194613435
13380535 21 18338526231110497230
14178342 30 18411414016446370104
14790565 3 17976844273598819013
16945 1 18339082721322420023
193761 8 18410013191372112151
20510252 161 18199189675288369352
20511035 2 18200022928834276646
21501502 16 18338233760938666798
2334 1 18410013221368369903
23388829 49 18267294524723573591
23419403 2 16319971325020445231
23559900 14 18270974453947518084
2748010 2 18411139095473721430
43471831 8 18335414695235921042
589210 1 18410294674922978511

> <PUBCHEM_SHAPE_MULTIPOLES>
299.93
4.14
3.92
0.72
0.58
0.27
-0.04
0.69
-0.67
-0.32
-0.5
0
-0.18
0.03

> <PUBCHEM_SHAPE_SELFOVERLAP>
622.722

> <PUBCHEM_SHAPE_VOLUME>
172.2

> <PUBCHEM_COORDINATE_TYPE>
2
5
10

$$$$
