6438522
  -OEChem-10241303093D

 45 47  0     0  0  0  0  0  0999 V2000
   -0.7973    0.8758   -2.9310 O   0  0  0  0  0  0  0  0  0  0  0  0
    6.7684   -0.8990   -0.5359 O   0  0  0  0  0  0  0  0  0  0  0  0
    4.7995   -0.8342   -1.6639 O   0  0  0  0  0  0  0  0  0  0  0  0
   -1.5442   -0.9315   -1.6673 N   0  0  0  0  0  0  0  0  0  0  0  0
   -1.9599    3.6117    0.9226 N   0  0  0  0  0  0  0  0  0  0  0  0
   -0.7116    0.0710    1.0069 C   0  0  0  0  0  0  0  0  0  0  0  0
    1.3682    1.2107    1.8188 C   0  0  0  0  0  0  0  0  0  0  0  0
   -1.5140   -1.1482    0.8352 C   0  0  0  0  0  0  0  0  0  0  0  0
    2.8598    0.8629    1.8758 C   0  0  0  0  0  0  0  0  0  0  0  0
   -1.2065    1.3425    0.4907 C   0  0  0  0  0  0  0  0  0  0  0  0
   -1.9299   -1.5848   -0.4373 C   0  0  0  0  0  0  0  0  0  0  0  0
    0.4908    0.0163    1.6058 C   0  0  0  0  0  0  0  0  0  0  0  0
    3.3983    0.2805    0.5627 C   0  0  0  0  0  0  0  0  0  0  0  0
   -1.5432    1.4737   -0.8519 C   0  0  0  0  0  0  0  0  0  0  0  0
   -1.2488    0.4357   -1.8675 C   0  0  0  0  0  0  0  0  0  0  0  0
   -1.8893   -1.8640    1.9916 C   0  0  0  0  0  0  0  0  0  0  0  0
    4.8883   -0.0567    0.6434 C   0  0  0  0  0  0  0  0  0  0  0  0
   -2.6979   -2.7689   -0.4945 C   0  0  0  0  0  0  0  0  0  0  0  0
   -1.4402    2.4322    1.3292 C   0  0  0  0  0  0  0  0  0  0  0  0
   -1.4660   -1.7868   -2.8605 C   0  0  0  0  0  0  0  0  0  0  0  0
   -2.0791    2.6853   -1.3039 C   0  0  0  0  0  0  0  0  0  0  0  0
   -2.6562   -3.0206    1.9018 C   0  0  0  0  0  0  0  0  0  0  0  0
   -3.0599   -3.4743    0.6563 C   0  0  0  0  0  0  0  0  0  0  0  0
   -2.2687    3.7068   -0.3867 C   0  0  0  0  0  0  0  0  0  0  0  0
    5.4394   -0.6361   -0.6406 C   0  0  0  0  0  0  0  0  0  0  0  0
    1.2444    1.9677    1.0371 H   0  0  0  0  0  0  0  0  0  0  0  0
    1.1027    1.6700    2.7787 H   0  0  0  0  0  0  0  0  0  0  0  0
    3.0416    0.1521    2.6919 H   0  0  0  0  0  0  0  0  0  0  0  0
    3.4216    1.7728    2.1214 H   0  0  0  0  0  0  0  0  0  0  0  0
    0.8560   -0.9316    1.9968 H   0  0  0  0  0  0  0  0  0  0  0  0
    3.2295    0.9974   -0.2508 H   0  0  0  0  0  0  0  0  0  0  0  0
    2.8441   -0.6275    0.2965 H   0  0  0  0  0  0  0  0  0  0  0  0
   -1.5876   -1.5191    2.9790 H   0  0  0  0  0  0  0  0  0  0  0  0
    5.4560    0.8519    0.8735 H   0  0  0  0  0  0  0  0  0  0  0  0
    5.0552   -0.7894    1.4409 H   0  0  0  0  0  0  0  0  0  0  0  0
   -3.0570   -3.1654   -1.4412 H   0  0  0  0  0  0  0  0  0  0  0  0
   -1.2385    2.3840    2.3955 H   0  0  0  0  0  0  0  0  0  0  0  0
   -0.9960   -2.7444   -2.6136 H   0  0  0  0  0  0  0  0  0  0  0  0
   -0.8646   -1.3245   -3.6487 H   0  0  0  0  0  0  0  0  0  0  0  0
   -2.4750   -1.9374   -3.2571 H   0  0  0  0  0  0  0  0  0  0  0  0
   -2.3442    2.8426   -2.3446 H   0  0  0  0  0  0  0  0  0  0  0  0
   -2.9372   -3.5615    2.8001 H   0  0  0  0  0  0  0  0  0  0  0  0
   -3.6599   -4.3757    0.5729 H   0  0  0  0  0  0  0  0  0  0  0  0
   -2.6833    4.6605   -0.6962 H   0  0  0  0  0  0  0  0  0  0  0  0
    7.1351   -1.2657   -1.3686 H   0  0  0  0  0  0  0  0  0  0  0  0
  1 15  2  0  0  0  0
  2 25  1  0  0  0  0
  2 45  1  0  0  0  0
  3 25  2  0  0  0  0
  4 11  1  0  0  0  0
  4 15  1  0  0  0  0
  4 20  1  0  0  0  0
  5 19  2  0  0  0  0
  5 24  1  0  0  0  0
  6  8  1  0  0  0  0
  6 10  1  0  0  0  0
  6 12  2  0  0  0  0
  7  9  1  0  0  0  0
  7 12  1  0  0  0  0
  7 26  1  0  0  0  0
  7 27  1  0  0  0  0
  8 11  1  0  0  0  0
  8 16  2  0  0  0  0
  9 13  1  0  0  0  0
  9 28  1  0  0  0  0
  9 29  1  0  0  0  0
 10 14  2  0  0  0  0
 10 19  1  0  0  0  0
 11 18  2  0  0  0  0
 12 30  1  0  0  0  0
 13 17  1  0  0  0  0
 13 31  1  0  0  0  0
 13 32  1  0  0  0  0
 14 15  1  0  0  0  0
 14 21  1  0  0  0  0
 16 22  1  0  0  0  0
 16 33  1  0  0  0  0
 17 25  1  0  0  0  0
 17 34  1  0  0  0  0
 17 35  1  0  0  0  0
 18 23  1  0  0  0  0
 18 36  1  0  0  0  0
 19 37  1  0  0  0  0
 20 38  1  0  0  0  0
 20 39  1  0  0  0  0
 20 40  1  0  0  0  0
 21 24  2  0  0  0  0
 21 41  1  0  0  0  0
 22 23  2  0  0  0  0
 22 42  1  0  0  0  0
 23 43  1  0  0  0  0
 24 44  1  0  0  0  0
M  END
> <PUBCHEM_COMPOUND_CID>
6438522

> <PUBCHEM_CONFORMER_RMSD>
0.8

> <PUBCHEM_CONFORMER_DIVERSEORDER>
13
11
16
28
20
29
3
30
24
7
33
4
27
35
1
21
2
5
25
31
18
43
34
22
36
42
12
39
19
15
8
6
23
32
38
17
10
26
37
41
40
9
14

> <PUBCHEM_MMFF94_PARTIAL_CHARGES>
32
1 -0.57
10 0.03
11 0.12
12 -0.29
14 0.09
15 0.54
16 -0.15
17 0.06
18 -0.15
19 0.16
2 -0.65
20 0.3
21 -0.15
22 -0.15
23 -0.15
24 0.16
25 0.66
3 -0.57
30 0.15
33 0.15
36 0.15
37 0.15
4 -0.48
41 0.15
42 0.15
43 0.15
44 0.15
45 0.5
5 -0.62
6 -0.06
7 0.14
8 0.03

> <PUBCHEM_EFFECTIVE_ROTOR_COUNT>
5.2

> <PUBCHEM_PHARMACOPHORE_FEATURES>
9
1 1 acceptor
1 2 acceptor
1 3 acceptor
1 5 acceptor
3 2 3 25 anion
5 7 9 12 13 17 hydrophobe
6 5 10 14 19 21 24 rings
6 8 11 16 18 22 23 rings
7 4 6 8 10 11 14 15 rings

> <PUBCHEM_HEAVY_ATOM_COUNT>
25

> <PUBCHEM_ATOM_DEF_STEREO_COUNT>
0

> <PUBCHEM_ATOM_UDEF_STEREO_COUNT>
0

> <PUBCHEM_BOND_DEF_STEREO_COUNT>
1

> <PUBCHEM_BOND_UDEF_STEREO_COUNT>
0

> <PUBCHEM_ISOTOPIC_ATOM_COUNT>
0

> <PUBCHEM_COMPONENT_COUNT>
1

> <PUBCHEM_CACTVS_TAUTO_COUNT>
1

> <PUBCHEM_CONFORMER_ID>
00623E7A0000000D

> <PUBCHEM_MMFF94_ENERGY>
91.5502

> <PUBCHEM_FEATURE_SELFOVERLAP>
45.747

> <PUBCHEM_SHAPE_FINGERPRINT>
10764073 3 17558583268718018387
107951 10 18196374710456204692
10928967 22 17632583781923959702
11954058 11 17762906867349269675
12156800 1 17977427959679991585
12633257 1 16342593905991068918
12716301 132 13680703906186743217
12788726 201 18261941990809236771
13135754 10 18340503221509927355
13994607 96 13912324551661185830
14713325 29 18408890611780912082
14932701 244 18188212138770674664
15163728 17 17612873695001362429
15475509 8 18337098086430232511
16945 1 13348029621099996501
1813 80 18051701232577259211
22907989 373 17968083244646936874
23352939 185 16588593144162904323
23419403 2 17033280855451108817
23557571 272 18118102883273489256
266924 78 17034681216668976829
2748010 2 16019383783162167031
44062 13 18339088086469932290
469060 322 14201697380434126096
484985 159 16200429161184817270
4921388 177 18409166585073230504
497634 4 17967542289600554502
57262259 84 18336541715606650937
6786 2 17976265629881591473
84936 31 16969412505573775785
9981440 41 17630038261590829382

> <PUBCHEM_SHAPE_MULTIPOLES>
486.92
8.32
4.19
2.62
23.2
1.79
-1.25
-5.3
-1.65
-6.41
0.68
-0.72
-0.47
1.6

> <PUBCHEM_SHAPE_SELFOVERLAP>
1047.668

> <PUBCHEM_SHAPE_VOLUME>
263.9

> <PUBCHEM_COORDINATE_TYPE>
2
5
10

$$$$
