81494
  -OEChem-10241303093D

 18 18  0     0  0  0  0  0  0999 V2000
    3.0504    1.4295    0.0124 Br  0  0  0  0  0  0  0  0  0  0  0  0
   -2.5161   -0.7121   -0.0226 O   0  0  0  0  0  0  0  0  0  0  0  0
    2.0841   -1.4726   -0.0447 O   0  0  0  0  0  0  0  0  0  0  0  0
   -0.2265   -1.1354    0.0215 N   0  0  0  0  0  0  0  0  0  0  0  0
   -1.0539    1.0898    0.0005 N   0  0  0  0  0  0  0  0  0  0  0  0
   -1.3594   -0.2805   -0.0013 C   0  0  0  0  0  0  0  0  0  0  0  0
    1.1145   -0.7162   -0.0077 C   0  0  0  0  0  0  0  0  0  0  0  0
    0.2412    1.5546    0.0098 C   0  0  0  0  0  0  0  0  0  0  0  0
    1.3111    0.7569    0.0063 C   0  0  0  0  0  0  0  0  0  0  0  0
   -0.4964   -2.5697    0.0334 C   0  0  0  0  0  0  0  0  0  0  0  0
   -2.1489    2.0558   -0.0077 C   0  0  0  0  0  0  0  0  0  0  0  0
    0.3453    2.6355    0.0163 H   0  0  0  0  0  0  0  0  0  0  0  0
   -1.2026   -2.7962    0.8385 H   0  0  0  0  0  0  0  0  0  0  0  0
    0.4113   -3.1612    0.1741 H   0  0  0  0  0  0  0  0  0  0  0  0
   -0.9614   -2.8414   -0.9196 H   0  0  0  0  0  0  0  0  0  0  0  0
   -2.0665    2.6767   -0.9055 H   0  0  0  0  0  0  0  0  0  0  0  0
   -2.0711    2.6875    0.8829 H   0  0  0  0  0  0  0  0  0  0  0  0
   -3.1274    1.5689   -0.0069 H   0  0  0  0  0  0  0  0  0  0  0  0
  1  9  1  0  0  0  0
  2  6  2  0  0  0  0
  3  7  2  0  0  0  0
  4  6  1  0  0  0  0
  4  7  1  0  0  0  0
  4 10  1  0  0  0  0
  5  6  1  0  0  0  0
  5  8  1  0  0  0  0
  5 11  1  0  0  0  0
  7  9  1  0  0  0  0
  8  9  2  0  0  0  0
  8 12  1  0  0  0  0
 10 13  1  0  0  0  0
 10 14  1  0  0  0  0
 10 15  1  0  0  0  0
 11 16  1  0  0  0  0
 11 17  1  0  0  0  0
 11 18  1  0  0  0  0
M  END
> <PUBCHEM_COMPOUND_CID>
81494

> <PUBCHEM_CONFORMER_RMSD>
0.4

> <PUBCHEM_CONFORMER_DIVERSEORDER>
1

> <PUBCHEM_MMFF94_PARTIAL_CHARGES>
12
1 -0.11
10 0.3
11 0.3
12 0.15
2 -0.57
3 -0.57
4 -0.42
5 -0.47
6 0.69
7 0.62
8 -0.04
9 0.12

> <PUBCHEM_EFFECTIVE_ROTOR_COUNT>
0

> <PUBCHEM_PHARMACOPHORE_FEATURES>
4
1 1 hydrophobe
1 2 acceptor
1 3 acceptor
6 4 5 6 7 8 9 rings

> <PUBCHEM_HEAVY_ATOM_COUNT>
11

> <PUBCHEM_ATOM_DEF_STEREO_COUNT>
0

> <PUBCHEM_ATOM_UDEF_STEREO_COUNT>
0

> <PUBCHEM_BOND_DEF_STEREO_COUNT>
0

> <PUBCHEM_BOND_UDEF_STEREO_COUNT>
0

> <PUBCHEM_ISOTOPIC_ATOM_COUNT>
0

> <PUBCHEM_COMPONENT_COUNT>
1

> <PUBCHEM_CACTVS_TAUTO_COUNT>
1

> <PUBCHEM_CONFORMER_ID>
00013E5600000001

> <PUBCHEM_MMFF94_ENERGY>
19.7427

> <PUBCHEM_FEATURE_SELFOVERLAP>
20.297

> <PUBCHEM_SHAPE_FINGERPRINT>
13380535 76 18411693301137251068
16945 1 18266740362378676324
18185500 45 17978510059156947663
193761 8 18410573942217628418
20588541 1 18196377132828120738
20871998 184 17911808182200319918
21040471 1 18410575093485336448
21501502 16 18411134701817038456
23235685 24 18266170810970882780
2334 1 18410573972330086624
23552423 10 18335139730817311486
241688 4 18337672988401581664
2748010 2 18337675221789876156
5084963 1 18130504141393871443
66348 1 18409730625383784110

> <PUBCHEM_SHAPE_MULTIPOLES>
210.62
3.57
2.59
0.6
1.88
0.47
0
-1.05
0.01
-0.95
-0.01
0.07
-0.03
0.03

> <PUBCHEM_SHAPE_SELFOVERLAP>
417.232

> <PUBCHEM_SHAPE_VOLUME>
129.1

> <PUBCHEM_COORDINATE_TYPE>
2
5
10

$$$$
