195043
  -OEChem-10241303033D

 56 56  0     1  0  0  0  0  0999 V2000
    4.0617   -4.5626   -1.3689 S   0  0  0  0  0  0  0  0  0  0  0  0
    0.1528   -1.3524    1.5727 O   0  0  0  0  0  0  0  0  0  0  0  0
    4.1469    0.6854   -0.0616 O   0  0  0  0  0  0  0  0  0  0  0  0
   -2.7421   -0.6187   -2.1329 O   0  0  0  0  0  0  0  0  0  0  0  0
    1.8252   -0.6683    0.1163 N   0  0  0  0  0  0  0  0  0  0  0  0
   -1.8145   -0.4537   -0.0136 N   0  0  0  0  0  0  0  0  0  0  0  0
    1.1034    3.9322   -0.0314 N   0  0  0  0  0  0  0  0  0  0  0  0
    5.2092   -0.6480    1.4771 N   0  0  0  0  0  0  0  0  0  0  0  0
    0.6078    6.2809   -0.1222 N   0  0  0  0  0  0  0  0  0  0  0  0
    2.6653    5.5012   -0.7169 N   0  0  0  0  0  0  0  0  0  0  0  0
   -0.4721   -0.1513   -0.4384 C   0  0  1  0  0  0  0  0  0  0  0  0
   -0.2526    1.3566   -0.6144 C   0  0  0  0  0  0  0  0  0  0  0  0
   -0.4462    2.1715    0.6731 C   0  0  0  0  0  0  0  0  0  0  0  0
    2.9403   -1.2143    0.8547 C   0  0  1  0  0  0  0  0  0  0  0  0
    0.5099   -0.7847    0.5424 C   0  0  0  0  0  0  0  0  0  0  0  0
    3.2409   -2.6651    0.4546 C   0  0  0  0  0  0  0  0  0  0  0  0
   -0.2553    3.6683    0.4457 C   0  0  0  0  0  0  0  0  0  0  0  0
    3.7238   -2.8171   -0.9900 C   0  0  0  0  0  0  0  0  0  0  0  0
    4.1400   -0.2921    0.6830 C   0  0  0  0  0  0  0  0  0  0  0  0
   -2.8530   -0.6653   -0.9107 C   0  0  0  0  0  0  0  0  0  0  0  0
   -4.1849   -0.9409   -0.3128 C   0  0  0  0  0  0  0  0  0  0  0  0
   -5.3454   -0.6186   -1.0165 C   0  0  0  0  0  0  0  0  0  0  0  0
   -4.2750   -1.5225    0.9520 C   0  0  0  0  0  0  0  0  0  0  0  0
    1.4091    5.1701   -0.2664 C   0  0  0  0  0  0  0  0  0  0  0  0
    5.7123   -4.6719   -0.6417 C   0  0  0  0  0  0  0  0  0  0  0  0
   -6.5959   -0.8776   -0.4553 C   0  0  0  0  0  0  0  0  0  0  0  0
   -5.5255   -1.7816    1.5130 C   0  0  0  0  0  0  0  0  0  0  0  0
   -6.6859   -1.4592    0.8092 C   0  0  0  0  0  0  0  0  0  0  0  0
   -0.3097   -0.6362   -1.4101 H   0  0  0  0  0  0  0  0  0  0  0  0
    0.7511    1.5379   -1.0152 H   0  0  0  0  0  0  0  0  0  0  0  0
   -0.9559    1.7297   -1.3706 H   0  0  0  0  0  0  0  0  0  0  0  0
    0.2662    1.8317    1.4342 H   0  0  0  0  0  0  0  0  0  0  0  0
   -1.4526    2.0063    1.0745 H   0  0  0  0  0  0  0  0  0  0  0  0
    2.6725   -1.2009    1.9193 H   0  0  0  0  0  0  0  0  0  0  0  0
    2.0201   -0.2282   -0.7782 H   0  0  0  0  0  0  0  0  0  0  0  0
    2.3311   -3.2637    0.5976 H   0  0  0  0  0  0  0  0  0  0  0  0
    3.9906   -3.0727    1.1426 H   0  0  0  0  0  0  0  0  0  0  0  0
   -1.9961   -0.4328    0.9845 H   0  0  0  0  0  0  0  0  0  0  0  0
   -0.4321    4.1879    1.3952 H   0  0  0  0  0  0  0  0  0  0  0  0
   -0.9947    4.0173   -0.2854 H   0  0  0  0  0  0  0  0  0  0  0  0
    4.6182   -2.2202   -1.1920 H   0  0  0  0  0  0  0  0  0  0  0  0
    2.9441   -2.4800   -1.6807 H   0  0  0  0  0  0  0  0  0  0  0  0
    6.0696   -0.1103    1.4611 H   0  0  0  0  0  0  0  0  0  0  0  0
    5.1803   -1.4371    2.1143 H   0  0  0  0  0  0  0  0  0  0  0  0
   -5.2963   -0.1611   -2.0010 H   0  0  0  0  0  0  0  0  0  0  0  0
   -3.3978   -1.8178    1.5199 H   0  0  0  0  0  0  0  0  0  0  0  0
    5.6767   -4.5128    0.4385 H   0  0  0  0  0  0  0  0  0  0  0  0
    6.3842   -3.9419   -1.1008 H   0  0  0  0  0  0  0  0  0  0  0  0
    6.1160   -5.6714   -0.8254 H   0  0  0  0  0  0  0  0  0  0  0  0
   -7.4997   -0.6261   -1.0027 H   0  0  0  0  0  0  0  0  0  0  0  0
   -5.5964   -2.2411    2.4945 H   0  0  0  0  0  0  0  0  0  0  0  0
   -7.6596   -1.6624    1.2454 H   0  0  0  0  0  0  0  0  0  0  0  0
    0.9571    7.2086   -0.3374 H   0  0  0  0  0  0  0  0  0  0  0  0
   -0.3508    6.2183    0.2017 H   0  0  0  0  0  0  0  0  0  0  0  0
    2.9241    6.4630   -0.9074 H   0  0  0  0  0  0  0  0  0  0  0  0
    3.3702    4.7889   -0.8729 H   0  0  0  0  0  0  0  0  0  0  0  0
  1 18  1  0  0  0  0
  1 25  1  0  0  0  0
  2 15  2  0  0  0  0
  3 19  2  0  0  0  0
  4 20  2  0  0  0  0
  5 14  1  0  0  0  0
  5 15  1  0  0  0  0
  5 35  1  0  0  0  0
  6 11  1  0  0  0  0
  6 20  1  0  0  0  0
  6 38  1  0  0  0  0
  7 17  1  0  0  0  0
  7 24  2  0  0  0  0
  8 19  1  0  0  0  0
  8 43  1  0  0  0  0
  8 44  1  0  0  0  0
  9 24  1  0  0  0  0
  9 53  1  0  0  0  0
  9 54  1  0  0  0  0
 10 24  1  0  0  0  0
 10 55  1  0  0  0  0
 10 56  1  0  0  0  0
 11 12  1  0  0  0  0
 11 15  1  0  0  0  0
 11 29  1  0  0  0  0
 12 13  1  0  0  0  0
 12 30  1  0  0  0  0
 12 31  1  0  0  0  0
 13 17  1  0  0  0  0
 13 32  1  0  0  0  0
 13 33  1  0  0  0  0
 14 16  1  0  0  0  0
 14 19  1  0  0  0  0
 14 34  1  0  0  0  0
 16 18  1  0  0  0  0
 16 36  1  0  0  0  0
 16 37  1  0  0  0  0
 17 39  1  0  0  0  0
 17 40  1  0  0  0  0
 18 41  1  0  0  0  0
 18 42  1  0  0  0  0
 20 21  1  0  0  0  0
 21 22  2  0  0  0  0
 21 23  1  0  0  0  0
 22 26  1  0  0  0  0
 22 45  1  0  0  0  0
 23 27  2  0  0  0  0
 23 46  1  0  0  0  0
 25 47  1  0  0  0  0
 25 48  1  0  0  0  0
 25 49  1  0  0  0  0
 26 28  2  0  0  0  0
 26 50  1  0  0  0  0
 27 28  1  0  0  0  0
 27 51  1  0  0  0  0
 28 52  1  0  0  0  0
M  END
> <PUBCHEM_COMPOUND_CID>
195043

> <PUBCHEM_CONFORMER_RMSD>
1.2

> <PUBCHEM_CONFORMER_DIVERSEORDER>
1
8
2
32
20
31
10
18
35
22
30
29
33
12
13
34
11
16
3
24
19
6
27
25
26
15
7
14
4
5
21
9
17
28
23

> <PUBCHEM_MMFF94_PARTIAL_CHARGES>
38
1 -0.46
10 -0.85
11 0.36
14 0.36
15 0.57
17 0.25
18 0.23
19 0.57
2 -0.57
20 0.54
21 0.09
22 -0.15
23 -0.15
24 0.55
25 0.23
26 -0.15
27 -0.15
28 -0.15
3 -0.57
35 0.37
38 0.37
4 -0.57
43 0.37
44 0.37
45 0.15
46 0.15
5 -0.73
50 0.15
51 0.15
52 0.15
53 0.4
54 0.4
55 0.4
56 0.4
6 -0.73
7 -0.7
8 -0.8
9 -0.85

> <PUBCHEM_EFFECTIVE_ROTOR_COUNT>
14

> <PUBCHEM_PHARMACOPHORE_FEATURES>
11
1 10 donor
1 2 acceptor
1 25 hydrophobe
1 3 acceptor
1 4 acceptor
1 5 donor
1 6 donor
1 8 donor
1 9 donor
4 7 9 10 24 cation
6 21 22 23 26 27 28 rings

> <PUBCHEM_HEAVY_ATOM_COUNT>
28

> <PUBCHEM_ATOM_DEF_STEREO_COUNT>
2

> <PUBCHEM_ATOM_UDEF_STEREO_COUNT>
0

> <PUBCHEM_BOND_DEF_STEREO_COUNT>
0

> <PUBCHEM_BOND_UDEF_STEREO_COUNT>
0

> <PUBCHEM_ISOTOPIC_ATOM_COUNT>
0

> <PUBCHEM_COMPONENT_COUNT>
1

> <PUBCHEM_CACTVS_TAUTO_COUNT>
16

> <PUBCHEM_CONFORMER_ID>
0002F9E300000001

> <PUBCHEM_MMFF94_ENERGY>
67.8792

> <PUBCHEM_FEATURE_SELFOVERLAP>
55.879

> <PUBCHEM_SHAPE_FINGERPRINT>
11014199 57 18192998111085970884
11763715 3 18121241812797677934
11809386 21 17905044751371874442
12516196 113 18410569587648791939
131258 43 18266482939941848686
13540713 4 17698424556887733786
13690498 29 17984712112930649630
13785724 45 18341342089021396743
14347332 77 18196091037073897766
14955137 171 18410859850154931439
15081414 286 18411420622090389723
15664445 248 18270131213747949092
15927050 60 17545886387766419636
17913733 40 17831872613483522313
1813 80 18202291285947315599
18393751 57 17984395672872296808
18785283 64 17972592461944097313
21120745 212 18120947096246759566
21365058 113 18411146813883295863
21703447 108 18268700624725046650
23559900 14 18261099812858883923
24180151 248 18200888271083270174
24771750 20 17901113236755189116
513202 73 18127978494898468503
5265222 85 16818564994885556116
70251023 43 18340209562254946802
7399639 24 18129643233265558770
77188 2 18411141303144998749

> <PUBCHEM_SHAPE_MULTIPOLES>
532.58
13.99
7.81
1.35
11.73
16.29
0.05
-20.4
-0.58
-11
2.14
0.34
-0.82
1.71

> <PUBCHEM_SHAPE_SELFOVERLAP>
1057.754

> <PUBCHEM_SHAPE_VOLUME>
316.1

> <PUBCHEM_COORDINATE_TYPE>
2
5
10

$$$$
