5480198
  -OEChem-10241303013D

 23 23  0     0  0  0  0  0  0999 V2000
    4.9679   -0.2195    0.0683 S   0  0  0  0  0  0  0  0  0  0  0  0
   -2.2186   -1.0683    0.4011 N   0  0  0  0  0  0  0  0  0  0  0  0
    1.0647    0.0645   -0.0121 N   0  0  0  0  0  0  0  0  0  0  0  0
    2.3197   -0.4368   -0.0626 N   0  0  0  0  0  0  0  0  0  0  0  0
    3.1595    1.7140    0.2997 N   0  0  0  0  0  0  0  0  0  0  0  0
   -1.3102   -0.2056   -0.0642 C   0  0  0  0  0  0  0  0  0  0  0  0
    0.0692   -0.7595   -0.1576 C   0  0  0  0  0  0  0  0  0  0  0  0
   -1.5306    1.0886   -0.4469 C   0  0  0  0  0  0  0  0  0  0  0  0
    0.2151   -2.2462   -0.4158 C   0  0  0  0  0  0  0  0  0  0  0  0
   -2.8361    1.5550   -0.3405 C   0  0  0  0  0  0  0  0  0  0  0  0
   -3.8333    0.7112    0.1362 C   0  0  0  0  0  0  0  0  0  0  0  0
   -3.4760   -0.5797    0.4904 C   0  0  0  0  0  0  0  0  0  0  0  0
    3.4089    0.3823    0.1040 C   0  0  0  0  0  0  0  0  0  0  0  0
   -0.7529    1.7411   -0.8259 H   0  0  0  0  0  0  0  0  0  0  0  0
   -0.7409   -2.7277   -0.6347 H   0  0  0  0  0  0  0  0  0  0  0  0
    0.6552   -2.7260    0.4631 H   0  0  0  0  0  0  0  0  0  0  0  0
    0.8621   -2.4069   -1.2836 H   0  0  0  0  0  0  0  0  0  0  0  0
   -3.0768    2.5734   -0.6304 H   0  0  0  0  0  0  0  0  0  0  0  0
   -4.8579    1.0533    0.2270 H   0  0  0  0  0  0  0  0  0  0  0  0
   -4.2166   -1.2773    0.8675 H   0  0  0  0  0  0  0  0  0  0  0  0
    2.4447   -1.4322   -0.2036 H   0  0  0  0  0  0  0  0  0  0  0  0
    2.2124    2.0774    0.3205 H   0  0  0  0  0  0  0  0  0  0  0  0
    3.9136    2.3799    0.4300 H   0  0  0  0  0  0  0  0  0  0  0  0
  1 13  2  0  0  0  0
  2  6  1  0  0  0  0
  2 12  2  0  0  0  0
  3  4  1  0  0  0  0
  3  7  2  0  0  0  0
  4 13  1  0  0  0  0
  4 21  1  0  0  0  0
  5 13  1  0  0  0  0
  5 22  1  0  0  0  0
  5 23  1  0  0  0  0
  6  7  1  0  0  0  0
  6  8  2  0  0  0  0
  7  9  1  0  0  0  0
  8 10  1  0  0  0  0
  8 14  1  0  0  0  0
  9 15  1  0  0  0  0
  9 16  1  0  0  0  0
  9 17  1  0  0  0  0
 10 11  2  0  0  0  0
 10 18  1  0  0  0  0
 11 12  1  0  0  0  0
 11 19  1  0  0  0  0
 12 20  1  0  0  0  0
M  END
> <PUBCHEM_COMPOUND_CID>
5480198

> <PUBCHEM_CONFORMER_RMSD>
0.6

> <PUBCHEM_CONFORMER_DIVERSEORDER>
1
8
12
14
9
3
6
13
5
4
11
10
7
2

> <PUBCHEM_MMFF94_PARTIAL_CHARGES>
20
1 -0.38
10 -0.15
11 -0.15
12 0.16
13 0.5
14 0.15
18 0.15
19 0.15
2 -0.62
20 0.15
21 0.37
22 0.37
23 0.37
3 -0.51
4 -0.37
5 -0.8
6 0.4
7 0.3
8 -0.15
9 0.06

> <PUBCHEM_EFFECTIVE_ROTOR_COUNT>
3

> <PUBCHEM_PHARMACOPHORE_FEATURES>
6
1 1 acceptor
1 2 acceptor
1 3 acceptor
1 4 donor
1 5 donor
6 2 6 8 10 11 12 rings

> <PUBCHEM_HEAVY_ATOM_COUNT>
13

> <PUBCHEM_ATOM_DEF_STEREO_COUNT>
0

> <PUBCHEM_ATOM_UDEF_STEREO_COUNT>
0

> <PUBCHEM_BOND_DEF_STEREO_COUNT>
1

> <PUBCHEM_BOND_UDEF_STEREO_COUNT>
0

> <PUBCHEM_ISOTOPIC_ATOM_COUNT>
0

> <PUBCHEM_COMPONENT_COUNT>
1

> <PUBCHEM_CACTVS_TAUTO_COUNT>
3

> <PUBCHEM_CONFORMER_ID>
00539F0600000001

> <PUBCHEM_MMFF94_ENERGY>
35.5086

> <PUBCHEM_FEATURE_SELFOVERLAP>
30.489

> <PUBCHEM_SHAPE_FINGERPRINT>
10608611 8 18265051340862158509
10922049 32 18411421704633131782
11132069 177 18261112971836949013
12251169 10 17967535674733746333
12346645 44 18341614776468645963
13081056 2 18412826901910113808
13214271 11 18408323285498246863
13380535 76 18408604734404843439
14325111 11 18410573980877595870
15219456 202 18339366245093658343
17802600 8 18410288120934838076
18186145 218 17988651782929288274
20645464 45 18413394219966380199
20645477 56 18342170124789038680
20645477 70 17560244613803112086
20871999 31 10879995735600790163
21119208 17 14045741517131032920
21524375 3 18412824689891271070
22485316 2 8646769984686226712
23402539 116 18130780162046835996
2748010 2 18045231444746532431
366044 4 18412824685722936726
42 15 18040714745373950466
6430166 295 18411133624260054736
69090 78 18272366507696594182
7364860 26 18195528082229345134
81228 2 17622982995885879722

> <PUBCHEM_SHAPE_MULTIPOLES>
251.46
8.46
1.7
0.68
7
0.3
0.01
-2.14
-0.94
-0.25
0.16
-0.11
0.02
0.44

> <PUBCHEM_SHAPE_SELFOVERLAP>
504.839

> <PUBCHEM_SHAPE_VOLUME>
150.1

> <PUBCHEM_COORDINATE_TYPE>
2
5
10

$$$$
