5357211
  -OEChem-10241303013D

 17 16  0     0  0  0  0  0  0999 V2000
   -3.8896   -0.6254    0.0036 S   0  0  0  0  0  0  0  0  0  0  0  0
    2.7128    0.5204    1.2095 O   0  0  0  0  0  0  0  0  0  0  0  0
    2.8362    0.6660   -1.0806 O   0  0  0  0  0  0  0  0  0  0  0  0
   -0.0680    0.2299   -0.0160 N   0  0  0  0  0  0  0  0  0  0  0  0
   -1.2346   -0.4556   -0.0106 N   0  0  0  0  0  0  0  0  0  0  0  0
   -2.3959    1.5725    0.0111 N   0  0  0  0  0  0  0  0  0  0  0  0
    1.0223   -0.4684   -0.0311 C   0  0  0  0  0  0  0  0  0  0  0  0
    1.1566   -1.9641   -0.0381 C   0  0  0  0  0  0  0  0  0  0  0  0
    2.2986    0.3204   -0.0488 C   0  0  0  0  0  0  0  0  0  0  0  0
   -2.4383    0.2044    0.0009 C   0  0  0  0  0  0  0  0  0  0  0  0
    0.6761   -2.3734   -0.9309 H   0  0  0  0  0  0  0  0  0  0  0  0
    0.6885   -2.3809    0.8577 H   0  0  0  0  0  0  0  0  0  0  0  0
    2.2109   -2.2545   -0.0466 H   0  0  0  0  0  0  0  0  0  0  0  0
   -1.2037   -1.4687   -0.0180 H   0  0  0  0  0  0  0  0  0  0  0  0
   -1.5145    2.0746    0.0095 H   0  0  0  0  0  0  0  0  0  0  0  0
   -3.2448    2.1278    0.0202 H   0  0  0  0  0  0  0  0  0  0  0  0
    3.5552    1.0215    1.2483 H   0  0  0  0  0  0  0  0  0  0  0  0
  1 10  2  0  0  0  0
  2  9  1  0  0  0  0
  2 17  1  0  0  0  0
  3  9  2  0  0  0  0
  4  5  1  0  0  0  0
  4  7  2  0  0  0  0
  5 10  1  0  0  0  0
  5 14  1  0  0  0  0
  6 10  1  0  0  0  0
  6 15  1  0  0  0  0
  6 16  1  0  0  0  0
  7  8  1  0  0  0  0
  7  9  1  0  0  0  0
  8 11  1  0  0  0  0
  8 12  1  0  0  0  0
  8 13  1  0  0  0  0
M  END
> <PUBCHEM_COMPOUND_CID>
5357211

> <PUBCHEM_CONFORMER_RMSD>
0.6

> <PUBCHEM_CONFORMER_DIVERSEORDER>
1
7
4
6
8
3
2
5

> <PUBCHEM_MMFF94_PARTIAL_CHARGES>
14
1 -0.38
10 0.5
14 0.37
15 0.37
16 0.37
17 0.5
2 -0.65
3 -0.57
4 -0.51
5 -0.37
6 -0.8
7 0.39
8 0.06
9 0.72

> <PUBCHEM_EFFECTIVE_ROTOR_COUNT>
3

> <PUBCHEM_PHARMACOPHORE_FEATURES>
7
1 1 acceptor
1 2 acceptor
1 3 acceptor
1 4 acceptor
1 5 donor
1 6 donor
3 2 3 9 anion

> <PUBCHEM_HEAVY_ATOM_COUNT>
10

> <PUBCHEM_ATOM_DEF_STEREO_COUNT>
0

> <PUBCHEM_ATOM_UDEF_STEREO_COUNT>
0

> <PUBCHEM_BOND_DEF_STEREO_COUNT>
1

> <PUBCHEM_BOND_UDEF_STEREO_COUNT>
0

> <PUBCHEM_ISOTOPIC_ATOM_COUNT>
0

> <PUBCHEM_COMPONENT_COUNT>
1

> <PUBCHEM_CACTVS_TAUTO_COUNT>
5

> <PUBCHEM_CONFORMER_ID>
0051BE9B00000001

> <PUBCHEM_MMFF94_ENERGY>
20.1454

> <PUBCHEM_FEATURE_SELFOVERLAP>
35.616

> <PUBCHEM_SHAPE_FINGERPRINT>
11062470 55 16153423974135342431
12897270 3 18413952793242579781
12932764 1 17846492621749540455
14325111 11 18410293579975077055
14390081 3 18272929405988906665
15310529 11 18271523113774657167
170605 34 18113622295758766546
19973954 147 18265616472637906069
20645477 70 18340200770662522807
21028194 46 18412262839475585010
21040471 1 18411418457811766902
23552423 10 18190745228439548779
3248919 1 18040436572957967539
8030462 33 18343299224087573877

> <PUBCHEM_SHAPE_MULTIPOLES>
182.96
5.96
1.39
0.79
3.34
0.42
0.04
-0.62
0
-0.03
-0.02
-0.55
-0.11
-0.02

> <PUBCHEM_SHAPE_SELFOVERLAP>
341.243

> <PUBCHEM_SHAPE_VOLUME>
115.6

> <PUBCHEM_COORDINATE_TYPE>
2
5
10

$$$$
