167508
  -OEChem-10241302473D

 79 83  0     0  0  0  0  0  0999 V2000
   -6.6581   -2.7030    0.9032 O   0  0  0  0  0  0  0  0  0  0  0  0
   -6.3299    3.7995   -1.3041 O   0  0  0  0  0  0  0  0  0  0  0  0
   -6.3656   -2.3594   -1.3593 O   0  0  0  0  0  0  0  0  0  0  0  0
   -6.2062    3.1323    0.8636 O   0  0  0  0  0  0  0  0  0  0  0  0
    2.9853    1.5880    0.4637 N   0  0  0  0  0  0  0  0  0  0  0  0
    2.7507   -1.4214    0.0278 N   0  0  0  0  0  0  0  0  0  0  0  0
   -0.1348   -1.2478   -0.0529 N   0  0  0  0  0  0  0  0  0  0  0  0
    0.0510    1.6211    0.0845 N   0  0  0  0  0  0  0  0  0  0  0  0
   -2.1193   -2.1855   -0.7069 C   0  0  0  0  0  0  0  0  0  0  0  0
   -1.9822    2.6510    0.6306 C   0  0  0  0  0  0  0  0  0  0  0  0
   -1.4475   -0.9522   -0.3297 C   0  0  0  0  0  0  0  0  0  0  0  0
   -1.2559   -3.2108   -0.6656 C   0  0  0  0  0  0  0  0  0  0  0  0
   -1.2401    1.4681    0.1478 C   0  0  0  0  0  0  0  0  0  0  0  0
   -0.9841    3.5183    0.8501 C   0  0  0  0  0  0  0  0  0  0  0  0
   -0.0149   -2.5291   -0.2441 C   0  0  0  0  0  0  0  0  0  0  0  0
    0.2935    2.9069    0.5134 C   0  0  0  0  0  0  0  0  0  0  0  0
    2.7251    2.9161    0.2079 C   0  0  0  0  0  0  0  0  0  0  0  0
   -3.5643   -2.2327   -1.0754 C   0  0  0  0  0  0  0  0  0  0  0  0
    2.4209   -2.7528    0.0820 C   0  0  0  0  0  0  0  0  0  0  0  0
    4.0899   -1.1945    0.2087 C   0  0  0  0  0  0  0  0  0  0  0  0
   -3.4469    2.7570    0.8157 C   0  0  0  0  0  0  0  0  0  0  0  0
    4.2529    1.2559    0.0399 C   0  0  0  0  0  0  0  0  0  0  0  0
   -2.0087    0.2627   -0.2473 C   0  0  0  0  0  0  0  0  0  0  0  0
    3.8706    3.4515   -0.3475 C   0  0  0  0  0  0  0  0  0  0  0  0
    4.6787   -2.5371    0.3876 C   0  0  0  0  0  0  0  0  0  0  0  0
    3.6924   -3.4688    0.3125 C   0  0  0  0  0  0  0  0  0  0  0  0
    4.8246    2.4130   -0.4554 C   0  0  0  0  0  0  0  0  0  0  0  0
    1.4914    3.5125    0.5743 C   0  0  0  0  0  0  0  0  0  0  0  0
    1.2163   -3.3307   -0.0457 C   0  0  0  0  0  0  0  0  0  0  0  0
    4.7890   -0.0467    0.2148 C   0  0  0  0  0  0  0  0  0  0  0  0
   -4.4564   -2.4411    0.1458 C   0  0  0  0  0  0  0  0  0  0  0  0
   -1.4127   -4.6523   -0.9614 C   0  0  0  0  0  0  0  0  0  0  0  0
   -1.0991    4.9157    1.3612 C   0  0  0  0  0  0  0  0  0  0  0  0
   -4.1712    3.2620   -0.4314 C   0  0  0  0  0  0  0  0  0  0  0  0
    4.0622    4.8620   -0.7555 C   0  0  0  0  0  0  0  0  0  0  0  0
    6.1433   -2.7346    0.6125 C   0  0  0  0  0  0  0  0  0  0  0  0
    3.8880   -4.8903    0.4401 C   0  0  0  0  0  0  0  0  0  0  0  0
    6.1379    2.5206   -0.9718 C   0  0  0  0  0  0  0  0  0  0  0  0
   -5.9209   -2.4906   -0.2272 C   0  0  0  0  0  0  0  0  0  0  0  0
   -5.6575    3.3914   -0.1998 C   0  0  0  0  0  0  0  0  0  0  0  0
    3.3066   -5.6294    1.3851 C   0  0  0  0  0  0  0  0  0  0  0  0
    6.8805    1.5782   -1.6028 C   0  0  0  0  0  0  0  0  0  0  0  0
   -8.0746   -2.7730    0.7112 C   0  0  0  0  0  0  0  0  0  0  0  0
   -3.8623   -1.3346   -1.6298 H   0  0  0  0  0  0  0  0  0  0  0  0
   -3.7356   -3.0546   -1.7832 H   0  0  0  0  0  0  0  0  0  0  0  0
   -3.8657    1.7972    1.1415 H   0  0  0  0  0  0  0  0  0  0  0  0
   -3.6552    3.4401    1.6496 H   0  0  0  0  0  0  0  0  0  0  0  0
   -3.0598    0.4016   -0.4702 H   0  0  0  0  0  0  0  0  0  0  0  0
    1.5421    4.5545    0.8808 H   0  0  0  0  0  0  0  0  0  0  0  0
    1.1051   -4.4079   -0.0038 H   0  0  0  0  0  0  0  0  0  0  0  0
    2.3441    0.9580    0.9259 H   0  0  0  0  0  0  0  0  0  0  0  0
    2.0740   -0.7025   -0.1735 H   0  0  0  0  0  0  0  0  0  0  0  0
    5.8632   -0.0999    0.3697 H   0  0  0  0  0  0  0  0  0  0  0  0
   -4.2003   -3.3860    0.6396 H   0  0  0  0  0  0  0  0  0  0  0  0
   -4.3195   -1.6204    0.8595 H   0  0  0  0  0  0  0  0  0  0  0  0
   -0.7348   -4.9569   -1.7648 H   0  0  0  0  0  0  0  0  0  0  0  0
   -2.4308   -4.8964   -1.2780 H   0  0  0  0  0  0  0  0  0  0  0  0
   -1.1943   -5.2533   -0.0731 H   0  0  0  0  0  0  0  0  0  0  0  0
   -0.5538    5.0289    2.3038 H   0  0  0  0  0  0  0  0  0  0  0  0
   -2.1390    5.2007    1.5480 H   0  0  0  0  0  0  0  0  0  0  0  0
   -0.6949    5.6281    0.6343 H   0  0  0  0  0  0  0  0  0  0  0  0
   -4.0174    2.5694   -1.2663 H   0  0  0  0  0  0  0  0  0  0  0  0
   -3.7881    4.2488   -0.7163 H   0  0  0  0  0  0  0  0  0  0  0  0
    4.6083    4.9281   -1.7023 H   0  0  0  0  0  0  0  0  0  0  0  0
    3.1088    5.3801   -0.8998 H   0  0  0  0  0  0  0  0  0  0  0  0
    4.6305    5.4036    0.0076 H   0  0  0  0  0  0  0  0  0  0  0  0
    6.7197   -2.3543   -0.2373 H   0  0  0  0  0  0  0  0  0  0  0  0
    6.4017   -3.7910    0.7341 H   0  0  0  0  0  0  0  0  0  0  0  0
    6.4688   -2.2152    1.5198 H   0  0  0  0  0  0  0  0  0  0  0  0
    4.5836   -5.3580   -0.2508 H   0  0  0  0  0  0  0  0  0  0  0  0
    6.6126    3.4964   -0.8760 H   0  0  0  0  0  0  0  0  0  0  0  0
    3.5084   -6.6936    1.4472 H   0  0  0  0  0  0  0  0  0  0  0  0
    2.6286   -5.2038    2.1174 H   0  0  0  0  0  0  0  0  0  0  0  0
    7.8781    1.8253   -1.9520 H   0  0  0  0  0  0  0  0  0  0  0  0
    6.5158    0.5801   -1.8122 H   0  0  0  0  0  0  0  0  0  0  0  0
   -7.2950    3.8664   -1.1414 H   0  0  0  0  0  0  0  0  0  0  0  0
   -8.5417   -2.9447    1.6847 H   0  0  0  0  0  0  0  0  0  0  0  0
   -8.3263   -3.6068    0.0490 H   0  0  0  0  0  0  0  0  0  0  0  0
   -8.4486   -1.8288    0.3040 H   0  0  0  0  0  0  0  0  0  0  0  0
  1 39  1  0  0  0  0
  1 43  1  0  0  0  0
  2 40  1  0  0  0  0
  2 76  1  0  0  0  0
  3 39  2  0  0  0  0
  4 40  2  0  0  0  0
  5 17  1  0  0  0  0
  5 22  1  0  0  0  0
  5 51  1  0  0  0  0
  6 19  1  0  0  0  0
  6 20  1  0  0  0  0
  6 52  1  0  0  0  0
  7 11  1  0  0  0  0
  7 15  2  0  0  0  0
  8 13  2  0  0  0  0
  8 16  1  0  0  0  0
  9 11  1  0  0  0  0
  9 12  2  0  0  0  0
  9 18  1  0  0  0  0
 10 13  1  0  0  0  0
 10 14  2  0  0  0  0
 10 21  1  0  0  0  0
 11 23  2  0  0  0  0
 12 15  1  0  0  0  0
 12 32  1  0  0  0  0
 13 23  1  0  0  0  0
 14 16  1  0  0  0  0
 14 33  1  0  0  0  0
 15 29  1  0  0  0  0
 16 28  2  0  0  0  0
 17 24  2  0  0  0  0
 17 28  1  0  0  0  0
 18 31  1  0  0  0  0
 18 44  1  0  0  0  0
 18 45  1  0  0  0  0
 19 26  1  0  0  0  0
 19 29  2  0  0  0  0
 20 25  1  0  0  0  0
 20 30  2  0  0  0  0
 21 34  1  0  0  0  0
 21 46  1  0  0  0  0
 21 47  1  0  0  0  0
 22 27  2  0  0  0  0
 22 30  1  0  0  0  0
 23 48  1  0  0  0  0
 24 27  1  0  0  0  0
 24 35  1  0  0  0  0
 25 26  2  0  0  0  0
 25 36  1  0  0  0  0
 26 37  1  0  0  0  0
 27 38  1  0  0  0  0
 28 49  1  0  0  0  0
 29 50  1  0  0  0  0
 30 53  1  0  0  0  0
 31 39  1  0  0  0  0
 31 54  1  0  0  0  0
 31 55  1  0  0  0  0
 32 56  1  0  0  0  0
 32 57  1  0  0  0  0
 32 58  1  0  0  0  0
 33 59  1  0  0  0  0
 33 60  1  0  0  0  0
 33 61  1  0  0  0  0
 34 40  1  0  0  0  0
 34 62  1  0  0  0  0
 34 63  1  0  0  0  0
 35 64  1  0  0  0  0
 35 65  1  0  0  0  0
 35 66  1  0  0  0  0
 36 67  1  0  0  0  0
 36 68  1  0  0  0  0
 36 69  1  0  0  0  0
 37 41  2  0  0  0  0
 37 70  1  0  0  0  0
 38 42  2  0  0  0  0
 38 71  1  0  0  0  0
 41 72  1  0  0  0  0
 41 73  1  0  0  0  0
 42 74  1  0  0  0  0
 42 75  1  0  0  0  0
 43 77  1  0  0  0  0
 43 78  1  0  0  0  0
 43 79  1  0  0  0  0
M  END
> <PUBCHEM_COMPOUND_CID>
167508

> <PUBCHEM_CONFORMER_RMSD>
1.2

> <PUBCHEM_CONFORMER_DIVERSEORDER>
1
12
10
13
6
7
2
8
3
4
11
5
9

> <PUBCHEM_MMFF94_PARTIAL_CHARGES>
55
1 -0.43
10 -0.12
11 0.17
12 -0.12
13 0.42
14 -0.14
15 0.42
16 0.17
17 -0.2
18 0.14
19 0.1
2 -0.65
20 0.1
21 0.14
22 -0.2
23 -0.14
24 -0.18
25 -0.14
27 -0.05
28 -0.11
29 -0.14
3 -0.57
30 -0.11
31 0.06
32 0.14
33 0.14
34 0.06
35 0.18
36 0.14
37 -0.15
38 -0.1
39 0.66
4 -0.57
40 0.66
41 -0.3
42 -0.3
43 0.28
48 0.15
49 0.15
5 0.03
50 0.15
51 0.27
52 0.4
53 0.15
6 -0.6
7 -0.62
70 0.15
71 0.15
72 0.15
73 0.15
74 0.15
75 0.15
76 0.5
8 -0.62
9 -0.14

> <PUBCHEM_EFFECTIVE_ROTOR_COUNT>
9

> <PUBCHEM_PHARMACOPHORE_FEATURES>
16
1 2 acceptor
1 3 acceptor
1 4 acceptor
1 41 hydrophobe
1 42 hydrophobe
1 5 cation
1 5 donor
1 6 cation
1 6 donor
1 7 acceptor
1 8 acceptor
3 2 4 40 anion
5 5 17 22 24 27 rings
5 6 19 20 25 26 rings
5 7 9 11 12 15 rings
5 8 10 13 14 16 rings

> <PUBCHEM_HEAVY_ATOM_COUNT>
43

> <PUBCHEM_ATOM_DEF_STEREO_COUNT>
0

> <PUBCHEM_ATOM_UDEF_STEREO_COUNT>
0

> <PUBCHEM_BOND_DEF_STEREO_COUNT>
0

> <PUBCHEM_BOND_UDEF_STEREO_COUNT>
0

> <PUBCHEM_ISOTOPIC_ATOM_COUNT>
0

> <PUBCHEM_COMPONENT_COUNT>
1

> <PUBCHEM_CACTVS_TAUTO_COUNT>
6

> <PUBCHEM_CONFORMER_ID>
00028E5400000001

> <PUBCHEM_MMFF94_ENERGY>
115.3015

> <PUBCHEM_FEATURE_SELFOVERLAP>
81.258

> <PUBCHEM_SHAPE_FINGERPRINT>
10190108 129 18266751366907906297
10675989 125 18051408766969336824
1100329 8 18268144262575677877
12440605 4 18340778096018521281
13560911 43 18188197767862947522
1361 2 18051973619350566960
14117953 113 18124311602265883556
14394314 77 17908697681238886232
14400156 260 18126596533884285145
14725015 67 17837477915161063064
14790565 3 18411701015125614943
15001296 14 18335980853160471832
15274700 259 17825355662464392759
15276724 80 18411140260280192599
15320467 1 18195806494946491122
15351339 4 18337380625730138067
15400415 2 17329985210568075573
15781502 589 18272375248013252774
15927050 60 18412828009900841636
16628084 112 18410008879794613639
19311894 1 17688022016599527970
19611394 137 17974307434201456339
21133410 58 17903066738527232709
21133410 90 17059474271619347498
22223350 30 17912629229787159754
22311459 1 18195806495294618225
58083652 198 18410287030778568811
6036956 94 17829901180255367540
6371009 1 17981035323954928760
9961470 85 18271227349410643888

> <PUBCHEM_SHAPE_MULTIPOLES>
841.52
16.7
9.41
1.07
15.27
0.91
-0.08
1.54
-1.87
-0.86
1.28
0.09
-0.1
-2.82

> <PUBCHEM_SHAPE_SELFOVERLAP>
1836.083

> <PUBCHEM_SHAPE_VOLUME>
460.6

> <PUBCHEM_COORDINATE_TYPE>
2
5
10

$$$$
