68865
  -OEChem-10241302493D

 39 39  0     0  0  0  0  0  0999 V2000
   -0.9448   -0.6107    1.0690 O   0  0  0  0  0  0  0  0  0  0  0  0
   -1.4637    0.0346   -1.1175 O   0  0  0  0  0  0  0  0  0  0  0  0
    5.2572   -1.2938   -0.8255 O   0  0  0  0  0  0  0  0  0  0  0  0
   -4.1497    0.0201   -0.3443 N   0  0  0  0  0  0  0  0  0  0  0  0
    4.3358    0.7102    0.0073 N   0  0  0  0  0  0  0  0  0  0  0  0
   -5.5171   -0.3765   -0.0094 C   0  0  0  0  0  0  0  0  0  0  0  0
   -3.9456    1.4403   -0.0615 C   0  0  0  0  0  0  0  0  0  0  0  0
   -3.1859   -0.7925    0.3970 C   0  0  0  0  0  0  0  0  0  0  0  0
   -5.7657   -1.8350   -0.3540 C   0  0  0  0  0  0  0  0  0  0  0  0
   -4.9392    2.3003   -0.8240 C   0  0  0  0  0  0  0  0  0  0  0  0
   -1.7901   -0.3973   -0.0199 C   0  0  0  0  0  0  0  0  0  0  0  0
    0.3851   -0.2776    0.8004 C   0  0  0  0  0  0  0  0  0  0  0  0
    3.0073    0.3781    0.2739 C   0  0  0  0  0  0  0  0  0  0  0  0
    1.2204   -1.2476    0.2925 C   0  0  0  0  0  0  0  0  0  0  0  0
    0.8095    1.0075    1.0554 C   0  0  0  0  0  0  0  0  0  0  0  0
    2.5486   -0.9155    0.0259 C   0  0  0  0  0  0  0  0  0  0  0  0
    2.1378    1.3398    0.7887 C   0  0  0  0  0  0  0  0  0  0  0  0
    5.3471   -0.1128   -0.5059 C   0  0  0  0  0  0  0  0  0  0  0  0
    6.6529    0.6282   -0.6483 C   0  0  0  0  0  0  0  0  0  0  0  0
   -6.2440    0.1855   -0.6042 H   0  0  0  0  0  0  0  0  0  0  0  0
   -5.7484   -0.2005    1.0487 H   0  0  0  0  0  0  0  0  0  0  0  0
   -2.9520    1.7798   -0.3692 H   0  0  0  0  0  0  0  0  0  0  0  0
   -4.0355    1.6539    1.0117 H   0  0  0  0  0  0  0  0  0  0  0  0
   -3.3061   -0.6568    1.4790 H   0  0  0  0  0  0  0  0  0  0  0  0
   -3.2598   -1.8583    0.1605 H   0  0  0  0  0  0  0  0  0  0  0  0
   -5.4261   -2.0766   -1.3671 H   0  0  0  0  0  0  0  0  0  0  0  0
   -5.2885   -2.5197    0.3537 H   0  0  0  0  0  0  0  0  0  0  0  0
   -6.8408   -2.0438   -0.3122 H   0  0  0  0  0  0  0  0  0  0  0  0
   -4.9963    2.0175   -1.8807 H   0  0  0  0  0  0  0  0  0  0  0  0
   -5.9428    2.2707   -0.3889 H   0  0  0  0  0  0  0  0  0  0  0  0
   -4.6187    3.3479   -0.7862 H   0  0  0  0  0  0  0  0  0  0  0  0
    0.8623   -2.2543    0.1009 H   0  0  0  0  0  0  0  0  0  0  0  0
    0.1326    1.7553    1.4566 H   0  0  0  0  0  0  0  0  0  0  0  0
    3.1612   -1.7130   -0.3710 H   0  0  0  0  0  0  0  0  0  0  0  0
    2.4815    2.3518    0.9870 H   0  0  0  0  0  0  0  0  0  0  0  0
    4.5929    1.6730    0.2153 H   0  0  0  0  0  0  0  0  0  0  0  0
    6.5327    1.4563   -1.3524 H   0  0  0  0  0  0  0  0  0  0  0  0
    7.4246   -0.0492   -1.0242 H   0  0  0  0  0  0  0  0  0  0  0  0
    6.9667    1.0177    0.3243 H   0  0  0  0  0  0  0  0  0  0  0  0
  1 11  1  0  0  0  0
  1 12  1  0  0  0  0
  2 11  2  0  0  0  0
  3 18  2  0  0  0  0
  4  6  1  0  0  0  0
  4  7  1  0  0  0  0
  4  8  1  0  0  0  0
  5 13  1  0  0  0  0
  5 18  1  0  0  0  0
  5 36  1  0  0  0  0
  6  9  1  0  0  0  0
  6 20  1  0  0  0  0
  6 21  1  0  0  0  0
  7 10  1  0  0  0  0
  7 22  1  0  0  0  0
  7 23  1  0  0  0  0
  8 11  1  0  0  0  0
  8 24  1  0  0  0  0
  8 25  1  0  0  0  0
  9 26  1  0  0  0  0
  9 27  1  0  0  0  0
  9 28  1  0  0  0  0
 10 29  1  0  0  0  0
 10 30  1  0  0  0  0
 10 31  1  0  0  0  0
 12 14  2  0  0  0  0
 12 15  1  0  0  0  0
 13 16  2  0  0  0  0
 13 17  1  0  0  0  0
 14 16  1  0  0  0  0
 14 32  1  0  0  0  0
 15 17  2  0  0  0  0
 15 33  1  0  0  0  0
 16 34  1  0  0  0  0
 17 35  1  0  0  0  0
 18 19  1  0  0  0  0
 19 37  1  0  0  0  0
 19 38  1  0  0  0  0
 19 39  1  0  0  0  0
M  END
> <PUBCHEM_COMPOUND_CID>
68865

> <PUBCHEM_CONFORMER_RMSD>
0.8

> <PUBCHEM_CONFORMER_DIVERSEORDER>
1
46
67
51
11
104
81
80
64
75
91
111
102
115
93
98
112
105
23
70
22
87
101
97
36
79
49
18
90
110
109
48
86
83
95
12
59
14
117
69
82
106
68
99
71
19
62
35
89
88
44
53
43
74
66
56
113
32
103
10
100
30
20
65
42
54
61
34
37
16
13
63
17
55
96
92
28
108
33
8
58
26
77
25
57
5
40
3
73
76
27
85
52
24
116
84
21
60
72
31
47
9
94
45
7
114
29
107
78
41
38
39
6
2
4
50
15

> <PUBCHEM_MMFF94_PARTIAL_CHARGES>
22
1 -0.23
11 0.66
12 0.08
13 0.12
14 -0.15
15 -0.15
16 -0.15
17 -0.15
18 0.57
19 0.06
2 -0.57
3 -0.57
32 0.15
33 0.15
34 0.15
35 0.15
36 0.37
4 -0.81
5 -0.55
6 0.27
7 0.27
8 0.33

> <PUBCHEM_EFFECTIVE_ROTOR_COUNT>
8

> <PUBCHEM_PHARMACOPHORE_FEATURES>
5
1 2 acceptor
1 3 acceptor
1 4 cation
1 5 donor
6 12 13 14 15 16 17 rings

> <PUBCHEM_HEAVY_ATOM_COUNT>
19

> <PUBCHEM_ATOM_DEF_STEREO_COUNT>
0

> <PUBCHEM_ATOM_UDEF_STEREO_COUNT>
0

> <PUBCHEM_BOND_DEF_STEREO_COUNT>
0

> <PUBCHEM_BOND_UDEF_STEREO_COUNT>
0

> <PUBCHEM_ISOTOPIC_ATOM_COUNT>
0

> <PUBCHEM_COMPONENT_COUNT>
1

> <PUBCHEM_CACTVS_TAUTO_COUNT>
2

> <PUBCHEM_CONFORMER_ID>
00010D0100000001

> <PUBCHEM_MMFF94_ENERGY>
50.5716

> <PUBCHEM_FEATURE_SELFOVERLAP>
25.371

> <PUBCHEM_SHAPE_FINGERPRINT>
10366900 7 17095235939126934945
11045977 3 8142078758737715276
11089746 13 14345792790043204191
12236239 1 16988569021464785267
12403259 415 18272643571900089193
12616971 3 14405182906612331489
12670543 26 18411705344631653078
13533116 47 14117528606372103174
13631057 29 15936982967483148387
13668630 136 17131841983828937166
14251718 22 18411139147181984423
14251752 14 18337952290662793492
14350574 20 18202003265482585299
14573314 32 18409168787895444918
14911166 2 18342742940261051610
15048467 5 18113338583025135948
15183329 4 18202285758065903656
15348495 7 8934990465154141702
15778101 99 18338800010181481849
17834072 33 18341611529415451735
17834072 8 18131349691652998512
200 152 17203331095937388216
20281389 69 16732979825779981900
20645477 70 17775010080988654990
21150785 3 18272938267012729980
21267235 1 18201726188642088955
21637258 2 14836124300439700932
21709351 56 18341607140111895365
221357 26 18342452656180141049
22224240 67 10881682446878648192
2297311 6 18410576219420661915
23198884 109 18040437693643738545
23402539 116 18113897160949542388
23402655 69 18340201895479373145
23536379 177 18187083936576342170
23557571 272 18411140238414810197
23559900 14 18339354266888435569
26918003 58 8430317944015004911
300161 21 8286211539268562787
3004659 81 18335704893655277994
3545911 37 18411417294186833657
4214541 1 18412823578048311073
465052 167 17275110543988734566
542803 24 17530965778263408216
54446538 1 18114181964309993621

> <PUBCHEM_SHAPE_MULTIPOLES>
363.44
15.4
1.69
0.96
3.9
0.44
0.04
0.19
-5.17
-2.09
-0.2
0.18
0.11
0.67

> <PUBCHEM_SHAPE_SELFOVERLAP>
735.77

> <PUBCHEM_SHAPE_VOLUME>
211.6

> <PUBCHEM_COORDINATE_TYPE>
2
5
10

$$$$
