68958
  -OEChem-10241302503D

 12 12  0     0  0  0  0  0  0999 V2000
    0.3215    1.1994    0.0002 N   0  0  0  0  0  0  0  0  0  0  0  0
    2.3604   -0.0312   -0.0005 N   0  0  0  0  0  0  0  0  0  0  0  0
   -1.7849    0.0289   -0.0003 N   0  0  0  0  0  0  0  0  0  0  0  0
    0.9442    0.0025    0.0004 C   0  0  0  0  0  0  0  0  0  0  0  0
    0.2802   -1.2072    0.0004 C   0  0  0  0  0  0  0  0  0  0  0  0
   -1.0975   -1.1321   -0.0002 C   0  0  0  0  0  0  0  0  0  0  0  0
   -1.0238    1.1398    0.0000 C   0  0  0  0  0  0  0  0  0  0  0  0
    0.7935   -2.1607    0.0003 H   0  0  0  0  0  0  0  0  0  0  0  0
   -1.7054   -2.0307   -0.0005 H   0  0  0  0  0  0  0  0  0  0  0  0
   -1.5498    2.0866    0.0000 H   0  0  0  0  0  0  0  0  0  0  0  0
    2.7593   -0.4449    0.8378 H   0  0  0  0  0  0  0  0  0  0  0  0
    2.7584   -0.4432   -0.8401 H   0  0  0  0  0  0  0  0  0  0  0  0
  1  4  2  0  0  0  0
  1  7  1  0  0  0  0
  2  4  1  0  0  0  0
  2 11  1  0  0  0  0
  2 12  1  0  0  0  0
  3  6  1  0  0  0  0
  3  7  2  0  0  0  0
  4  5  1  0  0  0  0
  5  6  2  0  0  0  0
  5  8  1  0  0  0  0
  6  9  1  0  0  0  0
  7 10  1  0  0  0  0
M  END
> <PUBCHEM_COMPOUND_CID>
68958

> <PUBCHEM_CONFORMER_RMSD>
0.4

> <PUBCHEM_CONFORMER_DIVERSEORDER>
1

> <PUBCHEM_MMFF94_PARTIAL_CHARGES>
12
1 -0.62
10 0.15
11 0.4
12 0.4
2 -0.9
3 -0.62
4 0.41
5 -0.15
6 0.16
7 0.47
8 0.15
9 0.15

> <PUBCHEM_EFFECTIVE_ROTOR_COUNT>
0

> <PUBCHEM_PHARMACOPHORE_FEATURES>
4
1 2 donor
3 1 2 4 cation
3 1 3 7 cation
6 1 3 4 5 6 7 rings

> <PUBCHEM_HEAVY_ATOM_COUNT>
7

> <PUBCHEM_ATOM_DEF_STEREO_COUNT>
0

> <PUBCHEM_ATOM_UDEF_STEREO_COUNT>
0

> <PUBCHEM_BOND_DEF_STEREO_COUNT>
0

> <PUBCHEM_BOND_UDEF_STEREO_COUNT>
0

> <PUBCHEM_ISOTOPIC_ATOM_COUNT>
0

> <PUBCHEM_COMPONENT_COUNT>
1

> <PUBCHEM_CACTVS_TAUTO_COUNT>
3

> <PUBCHEM_CONFORMER_ID>
00010D5E00000001

> <PUBCHEM_MMFF94_ENERGY>
30.78

> <PUBCHEM_FEATURE_SELFOVERLAP>
20.433

> <PUBCHEM_SHAPE_FINGERPRINT>
16714656 1 18410860957876230814
20096714 4 18194684769716250651
21040471 1 18266741277080044865
23552423 10 18260555485266778326
29004967 10 18261121776282399187

> <PUBCHEM_SHAPE_MULTIPOLES>
129.11
2.16
1.39
0.58
0.79
0.02
0
-0.04
0
-0.3
0
-0.01
0.02
0

> <PUBCHEM_SHAPE_SELFOVERLAP>
264.689

> <PUBCHEM_SHAPE_VOLUME>
71

> <PUBCHEM_COORDINATE_TYPE>
2
5
10

$$$$
