66587
  -OEChem-10241303133D

 22 24  0     0  0  0  0  0  0999 V2000
    0.5093   -1.7193    0.0001 O   0  0  0  0  0  0  0  0  0  0  0  0
   -3.9645    1.4099   -0.0006 O   0  0  0  0  0  0  0  0  0  0  0  0
   -0.4679    0.3201    0.0001 C   0  0  0  0  0  0  0  0  0  0  0  0
    0.9464    0.4995    0.0001 C   0  0  0  0  0  0  0  0  0  0  0  0
   -0.6798   -1.0551    0.0001 C   0  0  0  0  0  0  0  0  0  0  0  0
    1.4950   -0.7791   -0.0001 C   0  0  0  0  0  0  0  0  0  0  0  0
   -1.5896    1.1696    0.0003 C   0  0  0  0  0  0  0  0  0  0  0  0
    1.8204    1.6023    0.0002 C   0  0  0  0  0  0  0  0  0  0  0  0
   -1.9394   -1.6521    0.0002 C   0  0  0  0  0  0  0  0  0  0  0  0
    2.8636   -1.0427   -0.0004 C   0  0  0  0  0  0  0  0  0  0  0  0
   -2.8693    0.5983    0.0000 C   0  0  0  0  0  0  0  0  0  0  0  0
   -3.0383   -0.7882    0.0002 C   0  0  0  0  0  0  0  0  0  0  0  0
    3.2021    1.3685    0.0003 C   0  0  0  0  0  0  0  0  0  0  0  0
    3.7121    0.0683   -0.0003 C   0  0  0  0  0  0  0  0  0  0  0  0
   -1.4683    2.2491    0.0002 H   0  0  0  0  0  0  0  0  0  0  0  0
    1.4397    2.6193    0.0004 H   0  0  0  0  0  0  0  0  0  0  0  0
   -2.0627   -2.7286    0.0002 H   0  0  0  0  0  0  0  0  0  0  0  0
    3.2520   -2.0542   -0.0006 H   0  0  0  0  0  0  0  0  0  0  0  0
   -4.0378   -1.2177    0.0001 H   0  0  0  0  0  0  0  0  0  0  0  0
    3.8864    2.2131    0.0005 H   0  0  0  0  0  0  0  0  0  0  0  0
    4.7887   -0.0834   -0.0004 H   0  0  0  0  0  0  0  0  0  0  0  0
   -4.7660    0.8589   -0.0008 H   0  0  0  0  0  0  0  0  0  0  0  0
  1  5  1  0  0  0  0
  1  6  1  0  0  0  0
  2 11  1  0  0  0  0
  2 22  1  0  0  0  0
  3  4  1  0  0  0  0
  3  5  2  0  0  0  0
  3  7  1  0  0  0  0
  4  6  1  0  0  0  0
  4  8  2  0  0  0  0
  5  9  1  0  0  0  0
  6 10  2  0  0  0  0
  7 11  2  0  0  0  0
  7 15  1  0  0  0  0
  8 13  1  0  0  0  0
  8 16  1  0  0  0  0
  9 12  2  0  0  0  0
  9 17  1  0  0  0  0
 10 14  1  0  0  0  0
 10 18  1  0  0  0  0
 11 12  1  0  0  0  0
 12 19  1  0  0  0  0
 13 14  2  0  0  0  0
 13 20  1  0  0  0  0
 14 21  1  0  0  0  0
M  END
> <PUBCHEM_COMPOUND_CID>
66587

> <PUBCHEM_CONFORMER_RMSD>
0.4

> <PUBCHEM_CONFORMER_DIVERSEORDER>
1

> <PUBCHEM_MMFF94_PARTIAL_CHARGES>
20
1 -0.28
10 -0.15
11 0.08
12 -0.15
13 -0.15
14 -0.15
15 0.15
16 0.15
17 0.15
18 0.15
19 0.15
2 -0.53
20 0.15
21 0.15
22 0.45
5 0.14
6 0.14
7 -0.15
8 -0.15
9 -0.15

> <PUBCHEM_EFFECTIVE_ROTOR_COUNT>
0

> <PUBCHEM_PHARMACOPHORE_FEATURES>
5
1 1 acceptor
1 2 donor
5 1 3 4 5 6 rings
6 3 5 7 9 11 12 rings
6 4 6 8 10 13 14 rings

> <PUBCHEM_HEAVY_ATOM_COUNT>
14

> <PUBCHEM_ATOM_DEF_STEREO_COUNT>
0

> <PUBCHEM_ATOM_UDEF_STEREO_COUNT>
0

> <PUBCHEM_BOND_DEF_STEREO_COUNT>
0

> <PUBCHEM_BOND_UDEF_STEREO_COUNT>
0

> <PUBCHEM_ISOTOPIC_ATOM_COUNT>
0

> <PUBCHEM_COMPONENT_COUNT>
1

> <PUBCHEM_CACTVS_TAUTO_COUNT>
3

> <PUBCHEM_CONFORMER_ID>
0001041B00000001

> <PUBCHEM_MMFF94_ENERGY>
29.4615

> <PUBCHEM_FEATURE_SELFOVERLAP>
25.573

> <PUBCHEM_SHAPE_FINGERPRINT>
10608611 8 18411416249776713552
10967382 1 18338798901198457700
11132069 177 18411412916987385632
11471102 20 18411133593630989261
11543360 7 15769482222813273613
12491281 212 18411430500451600873
13380535 21 18410302422964599390
13380535 76 18411417293580315055
13571099 22 18130792222388797526
14144814 61 18410011048256998682
14325111 11 18410574015284956384
14897335 6 18411976957893999133
15196674 1 18410856568256123908
15219456 202 18411985770971809103
15442244 35 18267021652903817546
15536298 74 18343021103722927340
15775835 57 18408045104160253732
16945 1 18338797797386678822
18186145 218 18412829057841187292
193761 8 17257933693702441542
19591789 44 15605414880365090230
200 152 17988634220913497271
20510252 161 18271249429668044777
21267235 1 18410582811330759182
21501502 16 18410570721071407678
2334 1 18338517567945111808
23402539 116 18201428173329661588
23402655 69 18270669871619746589
23463225 33 18407757032456459890
23559900 14 18272651247570830816
25 1 18337107869515932487
2748010 2 18410857710712163014
335352 9 18266741277159114630
5104073 3 18410292523107135618
528886 8 18410851057902747594
53812653 166 18412822486752169064
57096353 35 18267020750617742518
6333449 129 18410854386729268215
69090 78 18413102862354375943
7364860 26 18268991981994048518
8809292 202 18333737922264465898
9709674 26 18412268367051554934

> <PUBCHEM_SHAPE_MULTIPOLES>
276.37
6.15
1.81
0.6
0.28
0.06
0
-1.43
0
0.22
0
-0.02
0
0

> <PUBCHEM_SHAPE_SELFOVERLAP>
629.927

> <PUBCHEM_SHAPE_VOLUME>
146.4

> <PUBCHEM_COORDINATE_TYPE>
2
5
10

$$$$
