5387478
  -OEChem-10241302573D

 29 31  0     1  0  0  0  0  0999 V2000
   -3.5658    2.3151    0.3273 O   0  0  0  0  0  0  0  0  0  0  0  0
   -4.3858    0.4038   -0.6058 O   0  0  0  0  0  0  0  0  0  0  0  0
   -2.2317   -1.0236    0.1282 N   0  0  0  0  0  0  0  0  0  0  0  0
    1.3866   -1.7130   -0.0190 N   0  0  0  0  0  0  0  0  0  0  0  0
   -1.0169    1.1049   -0.1812 C   0  0  0  0  0  0  0  0  0  0  0  0
    0.2294    0.2844   -0.0710 C   0  0  0  0  0  0  0  0  0  0  0  0
   -2.2218    0.3965    0.4653 C   0  0  1  0  0  0  0  0  0  0  0  0
    0.1253   -1.1625   -0.0239 C   0  0  0  0  0  0  0  0  0  0  0  0
    1.5126    0.6369   -0.0307 C   0  0  0  0  0  0  0  0  0  0  0  0
   -1.0689   -1.7761    0.0373 C   0  0  0  0  0  0  0  0  0  0  0  0
    2.1794   -0.6827   -0.0081 C   0  0  0  0  0  0  0  0  0  0  0  0
   -3.5064    1.0021   -0.0039 C   0  0  0  0  0  0  0  0  0  0  0  0
   -1.2284   -3.2671    0.0498 C   0  0  0  0  0  0  0  0  0  0  0  0
    2.2510    1.8561   -0.0514 C   0  0  0  0  0  0  0  0  0  0  0  0
    3.6591   -0.6745    0.0144 C   0  0  0  0  0  0  0  0  0  0  0  0
    3.5920    1.7876   -0.0316 C   0  0  0  0  0  0  0  0  0  0  0  0
    4.2903    0.5120    0.0045 C   0  0  0  0  0  0  0  0  0  0  0  0
   -0.8727    2.0918    0.2747 H   0  0  0  0  0  0  0  0  0  0  0  0
   -1.2196    1.2769   -1.2473 H   0  0  0  0  0  0  0  0  0  0  0  0
   -2.1786    0.4856    1.5580 H   0  0  0  0  0  0  0  0  0  0  0  0
   -3.0996   -1.5413    0.2283 H   0  0  0  0  0  0  0  0  0  0  0  0
   -1.8425   -3.5889   -0.7980 H   0  0  0  0  0  0  0  0  0  0  0  0
   -1.7203   -3.5888    0.9738 H   0  0  0  0  0  0  0  0  0  0  0  0
   -0.2705   -3.7924   -0.0172 H   0  0  0  0  0  0  0  0  0  0  0  0
    1.7326    2.8065   -0.0833 H   0  0  0  0  0  0  0  0  0  0  0  0
    4.1920   -1.6163    0.0377 H   0  0  0  0  0  0  0  0  0  0  0  0
    4.1933    2.6902   -0.0461 H   0  0  0  0  0  0  0  0  0  0  0  0
    5.3750    0.5483    0.0203 H   0  0  0  0  0  0  0  0  0  0  0  0
   -4.4013    2.7316    0.0260 H   0  0  0  0  0  0  0  0  0  0  0  0
  1 12  1  0  0  0  0
  1 29  1  0  0  0  0
  2 12  2  0  0  0  0
  3  7  1  0  0  0  0
  3 10  1  0  0  0  0
  3 21  1  0  0  0  0
  4  8  1  0  0  0  0
  4 11  2  0  0  0  0
  5  6  1  0  0  0  0
  5  7  1  0  0  0  0
  5 18  1  0  0  0  0
  5 19  1  0  0  0  0
  6  8  1  0  0  0  0
  6  9  2  0  0  0  0
  7 12  1  0  0  0  0
  7 20  1  0  0  0  0
  8 10  2  0  0  0  0
  9 11  1  0  0  0  0
  9 14  1  0  0  0  0
 10 13  1  0  0  0  0
 11 15  1  0  0  0  0
 13 22  1  0  0  0  0
 13 23  1  0  0  0  0
 13 24  1  0  0  0  0
 14 16  2  0  0  0  0
 14 25  1  0  0  0  0
 15 17  2  0  0  0  0
 15 26  1  0  0  0  0
 16 17  1  0  0  0  0
 16 27  1  0  0  0  0
 17 28  1  0  0  0  0
M  END
> <PUBCHEM_COMPOUND_CID>
5387478

> <PUBCHEM_CONFORMER_RMSD>
0.6

> <PUBCHEM_CONFORMER_DIVERSEORDER>
3
1
2

> <PUBCHEM_MMFF94_PARTIAL_CHARGES>
23
1 -0.65
10 -0.04
11 0.42
12 0.66
13 0.14
14 -0.15
15 -0.14
16 -0.15
17 -0.15
2 -0.57
21 0.4
25 0.15
26 0.15
27 0.15
28 0.15
29 0.5
3 -0.87
4 -0.62
5 0.14
6 -0.14
7 0.43
8 0.17
9 0.01

> <PUBCHEM_EFFECTIVE_ROTOR_COUNT>
1.6

> <PUBCHEM_PHARMACOPHORE_FEATURES>
9
1 1 acceptor
1 2 acceptor
1 3 cation
1 3 donor
1 4 acceptor
3 1 2 12 anion
5 4 6 8 9 11 rings
6 3 5 6 7 8 10 rings
6 9 11 14 15 16 17 rings

> <PUBCHEM_HEAVY_ATOM_COUNT>
17

> <PUBCHEM_ATOM_DEF_STEREO_COUNT>
0

> <PUBCHEM_ATOM_UDEF_STEREO_COUNT>
1

> <PUBCHEM_BOND_DEF_STEREO_COUNT>
0

> <PUBCHEM_BOND_UDEF_STEREO_COUNT>
0

> <PUBCHEM_ISOTOPIC_ATOM_COUNT>
0

> <PUBCHEM_COMPONENT_COUNT>
1

> <PUBCHEM_CACTVS_TAUTO_COUNT>
2

> <PUBCHEM_CONFORMER_ID>
005234D600000003

> <PUBCHEM_MMFF94_ENERGY>
41.2688

> <PUBCHEM_FEATURE_SELFOVERLAP>
45.944

> <PUBCHEM_SHAPE_FINGERPRINT>
10411042 1 16897083834997369931
10608611 8 18340768268611439104
10967382 1 18410293575622041984
11132069 177 18410289250748406016
11471102 20 18410853235751983404
11543360 7 16056589988939787996
11578080 2 16699476761451913355
12173636 292 18411696603993540773
12251169 10 18335415773129852248
12500047 106 18411415146133440952
13140716 1 18336819883943781826
13380535 76 18413107255710488710
13583140 156 17168140161159886809
138480 1 17545883728818017163
14178342 30 18192698150358846450
14897335 6 18411417327855339078
15099037 51 18339083688159625102
15196674 1 18410011061004763360
15309172 13 18337679624437140833
15442244 35 18409727361799625810
15536298 74 18342739598459945076
16945 1 18411426089820939334
18186145 218 18270123400775318701
20510252 161 18198067086489848299
20602899 9 15913050949352159663
21267235 1 18410583889430711082
21501502 16 18336543945121938558
21524375 3 18335420145185175763
2334 1 18194404630801494606
23402539 116 18272079487748247453
23402655 69 18271518702906781733
23558518 356 17899977437222671624
23559900 14 18343868819083285356
25 1 18338796719349822676
2748010 2 18268158723815050566
3091708 16 8979329375483029787
335352 9 18338235964720925302
352729 6 18412552036756300323
474 4 18268153059170022745
474229 33 18410576219378873195
5104073 3 18408885174436582200
6333272 397 18409730655738686129
633830 44 18129102221498618477
69090 78 18410007741142782119
7364860 26 18123190099814889726
74978 22 18410856607222052936
7832392 63 18410009974900413348
81228 2 17973436899848399299
8272917 22 18126288532714910853
9709674 26 18342462577264607054

> <PUBCHEM_SHAPE_MULTIPOLES>
328.15
7.22
2.65
0.63
0.17
1.3
0
-3.65
0.21
-1.28
-0.08
-0.08
-0.03
-0.06

> <PUBCHEM_SHAPE_SELFOVERLAP>
727.356

> <PUBCHEM_SHAPE_VOLUME>
174.9

> <PUBCHEM_COORDINATE_TYPE>
2
5
10

$$$$
