175146
  -OEChem-10241302493D

 44 45  0     1  0  0  0  0  0999 V2000
   -3.0826    2.1727   -0.1813 S   0  0  0  0  0  0  0  0  0  0  0  0
    5.6852    0.5598    1.7640 O   0  0  0  0  0  0  0  0  0  0  0  0
   -3.5076    2.2036    1.2126 O   0  0  0  0  0  0  0  0  0  0  0  0
   -3.3818    3.3060   -1.0477 O   0  0  0  0  0  0  0  0  0  0  0  0
    5.4564    1.7666   -0.1419 O   0  0  0  0  0  0  0  0  0  0  0  0
    2.9705   -3.6818    0.2228 O   0  0  0  0  0  0  0  0  0  0  0  0
   -4.3085   -1.8585    1.3717 O   0  0  0  0  0  0  0  0  0  0  0  0
    2.7895    1.2468   -0.3100 N   0  0  0  0  0  0  0  0  0  0  0  0
   -3.6639    0.7425   -0.9100 N   0  0  0  0  0  0  0  0  0  0  0  0
    3.9087   -3.6599   -1.8767 N   0  0  0  0  0  0  0  0  0  0  0  0
   -3.8881   -0.5623    1.0994 N   0  0  0  0  0  0  0  0  0  0  0  0
    3.5204    0.5953    0.7584 C   0  0  1  0  0  0  0  0  0  0  0  0
    3.3466   -0.9285    0.6818 C   0  0  0  0  0  0  0  0  0  0  0  0
    3.7959   -1.5879   -0.6274 C   0  0  0  0  0  0  0  0  0  0  0  0
    1.4238    1.4619   -0.2803 C   0  0  0  0  0  0  0  0  0  0  0  0
   -1.3584    1.9006   -0.2196 C   0  0  0  0  0  0  0  0  0  0  0  0
    4.9681    1.0418    0.7155 C   0  0  0  0  0  0  0  0  0  0  0  0
    0.6483    1.0465    0.8200 C   0  0  0  0  0  0  0  0  0  0  0  0
    0.7676    2.1030   -1.3494 C   0  0  0  0  0  0  0  0  0  0  0  0
   -0.7292    1.2637    0.8501 C   0  0  0  0  0  0  0  0  0  0  0  0
   -0.6099    2.3203   -1.3192 C   0  0  0  0  0  0  0  0  0  0  0  0
    3.5043   -3.0715   -0.7005 C   0  0  0  0  0  0  0  0  0  0  0  0
   -3.9991   -0.4467   -0.2195 C   0  0  0  0  0  0  0  0  0  0  0  0
   -4.4745   -1.6069   -0.8375 C   0  0  0  0  0  0  0  0  0  0  0  0
   -4.6551   -2.4704    0.2103 C   0  0  0  0  0  0  0  0  0  0  0  0
   -5.1267   -3.8567    0.3143 C   0  0  0  0  0  0  0  0  0  0  0  0
    3.1666    0.9622    1.7307 H   0  0  0  0  0  0  0  0  0  0  0  0
    2.2975   -1.1946    0.8553 H   0  0  0  0  0  0  0  0  0  0  0  0
    3.9027   -1.3930    1.5070 H   0  0  0  0  0  0  0  0  0  0  0  0
    3.2883    1.4945   -1.1577 H   0  0  0  0  0  0  0  0  0  0  0  0
    4.8748   -1.4475   -0.7625 H   0  0  0  0  0  0  0  0  0  0  0  0
    3.2915   -1.1168   -1.4791 H   0  0  0  0  0  0  0  0  0  0  0  0
    1.0803    0.5530    1.6849 H   0  0  0  0  0  0  0  0  0  0  0  0
    1.3357    2.4354   -2.2157 H   0  0  0  0  0  0  0  0  0  0  0  0
   -1.2915    0.9272    1.7164 H   0  0  0  0  0  0  0  0  0  0  0  0
   -1.0799    2.8121   -2.1662 H   0  0  0  0  0  0  0  0  0  0  0  0
   -3.8733    0.7650   -1.9163 H   0  0  0  0  0  0  0  0  0  0  0  0
   -4.6611   -1.7977   -1.8841 H   0  0  0  0  0  0  0  0  0  0  0  0
    6.6193    0.8580    1.7358 H   0  0  0  0  0  0  0  0  0  0  0  0
    3.7715   -4.6519   -2.0392 H   0  0  0  0  0  0  0  0  0  0  0  0
    4.3529   -3.1318   -2.6210 H   0  0  0  0  0  0  0  0  0  0  0  0
   -5.3809   -4.2625   -0.6698 H   0  0  0  0  0  0  0  0  0  0  0  0
   -4.3536   -4.4942    0.7541 H   0  0  0  0  0  0  0  0  0  0  0  0
   -6.0193   -3.9134    0.9449 H   0  0  0  0  0  0  0  0  0  0  0  0
  1  3  2  0  0  0  0
  1  4  2  0  0  0  0
  1  9  1  0  0  0  0
  1 16  1  0  0  0  0
  2 17  1  0  0  0  0
  2 39  1  0  0  0  0
  5 17  2  0  0  0  0
  6 22  2  0  0  0  0
  7 11  1  0  0  0  0
  7 25  1  0  0  0  0
  8 12  1  0  0  0  0
  8 15  1  0  0  0  0
  8 30  1  0  0  0  0
  9 23  1  0  0  0  0
  9 37  1  0  0  0  0
 10 22  1  0  0  0  0
 10 40  1  0  0  0  0
 10 41  1  0  0  0  0
 11 23  2  0  0  0  0
 12 13  1  0  0  0  0
 12 17  1  0  0  0  0
 12 27  1  0  0  0  0
 13 14  1  0  0  0  0
 13 28  1  0  0  0  0
 13 29  1  0  0  0  0
 14 22  1  0  0  0  0
 14 31  1  0  0  0  0
 14 32  1  0  0  0  0
 15 18  2  0  0  0  0
 15 19  1  0  0  0  0
 16 20  2  0  0  0  0
 16 21  1  0  0  0  0
 18 20  1  0  0  0  0
 18 33  1  0  0  0  0
 19 21  2  0  0  0  0
 19 34  1  0  0  0  0
 20 35  1  0  0  0  0
 21 36  1  0  0  0  0
 23 24  1  0  0  0  0
 24 25  2  0  0  0  0
 24 38  1  0  0  0  0
 25 26  1  0  0  0  0
 26 42  1  0  0  0  0
 26 43  1  0  0  0  0
 26 44  1  0  0  0  0
M  END
> <PUBCHEM_COMPOUND_CID>
175146

> <PUBCHEM_CONFORMER_RMSD>
1

> <PUBCHEM_CONFORMER_DIVERSEORDER>
1
70
12
62
90
29
33
101
112
42
107
91
47
97
14
108
92
60
82
69
105
16
48
38
71
27
9
49
88
72
32
85
113
93
98
20
56
28
76
99
104
86
41
103
57
74
116
79
64
61
95
63
94
30
106
55
84
25
80
46
68
109
44
67
58
110
5
54
2
89
36
50
15
40
75
19
43
100
31
17
7
18
77
24
59
73
22
115
39
53
34
26
3
11
35
23
21
111
45
96
102
4
65
83
10
51
87
78
6
114
52
13
66
37
81
8

> <PUBCHEM_MMFF94_PARTIAL_CHARGES>
35
1 1.45
10 -0.8
11 -0.41
12 0.43
14 0.06
15 0.1
16 -0.01
17 0.66
18 -0.15
19 -0.15
2 -0.65
20 -0.15
21 -0.15
22 0.57
23 0.43
24 -0.15
25 -0.04
26 0.18
3 -0.65
30 0.4
33 0.15
34 0.15
35 0.15
36 0.15
37 0.42
38 0.15
39 0.5
4 -0.65
40 0.37
41 0.37
5 -0.57
6 -0.57
7 -0.02
8 -0.87
9 -0.7

> <PUBCHEM_EFFECTIVE_ROTOR_COUNT>
9

> <PUBCHEM_PHARMACOPHORE_FEATURES>
13
1 10 donor
1 11 acceptor
1 2 acceptor
1 3 acceptor
1 4 acceptor
1 5 acceptor
1 6 acceptor
1 8 cation
1 8 donor
1 9 donor
3 2 5 17 anion
5 7 11 23 24 25 rings
6 15 16 18 19 20 21 rings

> <PUBCHEM_HEAVY_ATOM_COUNT>
26

> <PUBCHEM_ATOM_DEF_STEREO_COUNT>
1

> <PUBCHEM_ATOM_UDEF_STEREO_COUNT>
0

> <PUBCHEM_BOND_DEF_STEREO_COUNT>
0

> <PUBCHEM_BOND_UDEF_STEREO_COUNT>
0

> <PUBCHEM_ISOTOPIC_ATOM_COUNT>
0

> <PUBCHEM_COMPONENT_COUNT>
1

> <PUBCHEM_CACTVS_TAUTO_COUNT>
4

> <PUBCHEM_CONFORMER_ID>
0002AC2A00000001

> <PUBCHEM_MMFF94_ENERGY>
43.9761

> <PUBCHEM_FEATURE_SELFOVERLAP>
66.054

> <PUBCHEM_SHAPE_FINGERPRINT>
108634 29 18113906004493524882
10928967 22 17972328312796900338
11135609 12 18260556640881779121
11186622 123 18261670376819325555
11315621 136 18336274487532482806
11552529 35 18131909369152550705
12422481 6 18269296594502343539
12596602 18 16773518892188884203
13255334 9 18339081484461672030
13583140 156 17917695903569081144
1361 87 17983588411514215310
13631057 29 18339077206589875257
13911882 115 18413670210475783442
19141452 34 18263082120006397869
19958102 18 18044642119499440085
20028762 73 18125441058126241046
21315759 227 18114741637472594463
21344244 181 17755837755275862445
21673915 165 18411697699078319146
23424784 1240 18412550890074249066
23559900 14 18197491819192674944
2838139 119 8790616879393308027
32027 91 17978785710580407358
3737641 26 18272094898201870022
4073 2 18411980222285831328
463206 1 17615411359622673186
5104073 3 18271803471922714928
56633871 153 18338530707294926315
57527585 103 17314535766843757243
6431902 208 18338229479014658199
7970288 3 18120090843515472571
9709674 26 18337388227891057260

> <PUBCHEM_SHAPE_MULTIPOLES>
483.78
13.18
4.82
1.36
1.76
4.26
0.06
8.02
-2.25
-1.76
1.46
0.48
0.04
2.15

> <PUBCHEM_SHAPE_SELFOVERLAP>
998.214

> <PUBCHEM_SHAPE_VOLUME>
276.4

> <PUBCHEM_COORDINATE_TYPE>
2
5
10

$$$$
